* File: Top_alu.pex.netlist.pex
* Created: Wed May  1 13:43:26 2024
* Program "Calibre xRC"
* Version "v2013.2_18.13"
* Nominal Temperature: 27C
* Circuit Temperature: 27C
* 
.subckt PM_TOP_ALU%ADD_SUB#2FC2 6 8 9 10 14 16 18 20 22 24 27 31 34 40 44 50 53
+ 54 55 58 59 60 63 68 73 76 77 79 80 81 83 85
c203 68 0 1.75261e-19
c204 63 0 1.33078e-19
c205 6 0 9.51262e-20
r206 83 86 7.68984
r207 83 85 6.88799
r208 76 77 1.7
r209 71 73 0.224687
r210 68 83 25
r211 63 64 1.7
r212 61 73 0.00502066
r213 61 63 3.79215
r214 59 76 0.0269619
r215 59 60 0.159874
r216 58 71 0.00502066
r217 57 60 0.0477651
r218 57 58 14.0931
r219 56 68 0.0854933
r220 55 64 0.262309
r221 55 56 0.0485349
r222 52 77 0.122411
r223 52 53 0.0602685
r224 50 77 0.155442
r225 50 51 0.0602685
r226 47 80 30
r227 44 47 0.388606
r228 44 80 10
r229 42 44 0.359461
r230 41 54 0.00944082
r231 40 42 0.0479332
r232 40 41 1.06217
r233 37 79 30
r234 34 37 0.388606
r235 34 79 10
r236 32 54 0.0363272
r237 32 34 0.359461
r238 31 54 0.0363272
r239 31 53 0.105895
r240 27 51 0.565422
r241 27 81 10
r242 15 24 39.0551
r243 15 16 27.3386
r244 14 24 39.0551
r245 13 22 29.2913
r246 13 14 94.4157
r247 9 16 3.46412
r248 9 10 152.022
r249 8 10 3.46412
r250 7 20 39.0551
r251 7 8 27.3386
r252 6 20 39.0551
r253 6 86 29.7795
r254 3 18 29.2913
r255 3 85 38.4693
.ends

.subckt PM_TOP_ALU%GND! 1 4 7 11 14 18 21 25 28 32 35 39 44 47 49 53 58 63 67 70
+ 74 77 81 84 88 95 98 102 105 109 112 116 119 123 126 130 133 137 140 144 147
+ 151 154 158 161 165 172 177 180 186 189 193 196 200 203 207 212 215 217 221
+ 224 228 233 236 238 242 245 249 252 256 261 266 269 271 273 277 280 284 287
+ 291 296 301 306 311 313 315 319 322 326 329 333 336 340 345 348 350 354 357
+ 361 366 369 371 375 378 382 385 389 392 396 399 403 406 410 413 417 420 424
+ 427 431 434 438 441 445 450 453 455 459 462 466 471 474 476 480 485 488 490
+ 494 497 501 504 508 511 515 518 522 525 529 532 536 539 543 546 550 553 557
+ 562 565 567 571 574 578 581 585 588 592 597 600 602 606 609 613 616 620 623
+ 627 630 634 637 641 644 648 651 655 660 663 665 669 672 676 679 683 686 690
+ 695 698 700 704 709 712 714 718 721 725 730 733 735 739 742 746 751 754 756
+ 760 763 767 770 774 777 781 784 788 793 798 801 803 805 809 814 817 819 823
+ 826 830 833 837 840 844 847 851 854 858 861 865 868 872 877 882 887 889 893
+ 896 900 905 908 910 914 917 921 924 928 931 935 940 943 945 949 952 956 963
+ 966 970 973 977 980 984 987 991 996 999 1001 1005 1008 1012 1019 1024 1027
+ 1029 1033 1038 1041 1043 1047 1050 1054 1057 1061 1064 1068 1071 1075 1082
+ 1085 1089 1092 1096 1103 1106 1110 1117 1120 1124 1129 1132 1134 1138 1141
+ 1145 1148 1152 1157 1164 1167 1171 1176 1179 1181 1185 1190 1195 1199 1202
+ 1206 1211 1216 1221 1226 1229 1231 1235 1239 1243 1247 1293 1318 1363 1393
+ 1401 1429 1432 1446 1457 1545 1581 1641 1661 1687 1688 1692 1695 1698 1701
+ 1704 1707 1710 1831 1832 1833 1834 1835 1836 1837 1839 1840 1841 1842 1843
+ 1845 1846 1847 1848 1849 1851 1853 1855 1856 1858 1860 1861 1862 1864 1865
+ 1866 1868 1869 1870 1871 1872 1874 1876 1877 1878 1879 1880 1881 1882 1883
+ 1884 1885 1886 1887 1888 1889 1890 1891 1892 1893 1895 1896 1897 1899 1900
+ 1902 1904 1905 1906 1907 1908 1910 1911 1912 1913 1914 1915 1917 1919 1921
+ 1922 1923 1925 1926 1927 1928 1930 1931 1932 1934 1936 1938 1940 1941 1942
+ 1944 1945 1946 1948 1949 1950 1952 1954 1956 1957 1959 1960 1961 1962 1964
+ 1965 1966 1967 1968 1969 1970 1971 1972 1973 1974 1975 1976 1977 1978 1979
+ 1980 1981 1982 1983 1984 1985 1986 1987 1988 1989 1990 1991 1992 1993 1994
+ 1995 1996 1997 1998 1999 2000 2001 2002 2003 2004 2005 2006 2007 2008 2009
+ 2010 2011 2012 2013 2014 2015 2016 2017 2018 2019 2020 2021 2022 2023 2024
+ 2025 2026 2027 2028 2029 2030 2031 2032 2033 2034 2035 2036 2037 2038 2039
+ 2059
c6762 2039 0 2.75952e-19
c6763 2033 0 7.53608e-20
c6764 2032 0 6.68935e-20
c6765 2029 0 6.68935e-20
c6766 2028 0 8.38994e-20
c6767 2021 0 1.40575e-19
c6768 2017 0 9.19011e-20
c6769 2016 0 8.65979e-20
c6770 2014 0 9.19011e-20
c6771 2013 0 4.76658e-20
c6772 2009 0 7.58096e-20
c6773 2006 0 7.89736e-20
c6774 2002 0 1.522e-19
c6775 2000 0 2.20708e-19
c6776 1999 0 1.79094e-19
c6777 1997 0 9.19011e-20
c6778 1996 0 7.53608e-20
c6779 1995 0 9.19011e-20
c6780 1993 0 9.19011e-20
c6781 1985 0 8.29851e-20
c6782 1982 0 7.58096e-20
c6783 1980 0 7.58096e-20
c6784 1975 0 9.19011e-20
c6785 1974 0 9.19011e-20
c6786 1971 0 1.76886e-19
c6787 1966 0 1.42213e-19
c6788 1965 0 1.89681e-19
c6789 1964 0 7.53608e-20
c6790 1945 0 1.89681e-19
c6791 1922 0 7.83858e-20
c6792 1905 0 1.51619e-19
c6793 1899 0 6.72357e-20
c6794 1895 0 9.19011e-20
c6795 1891 0 9.5514e-20
c6796 1887 0 8.29851e-20
c6797 1878 0 7.53608e-20
c6798 1876 0 6.72357e-20
c6799 1868 0 6.72357e-20
c6800 1845 0 7.53608e-20
c6801 1839 0 8.29851e-20
c6802 1835 0 8.29851e-20
c6803 1833 0 6.94697e-20
c6804 1832 0 6.99937e-20
c6805 1221 0 1.68964e-19
c6806 1216 0 1.72067e-19
c6807 1211 0 1.69868e-19
c6808 1206 0 1.69546e-19
c6809 1145 0 1.70849e-19
c6810 1138 0 1.67703e-19
c6811 1129 0 1.67703e-19
c6812 1124 0 1.69546e-19
c6813 1089 0 1.68685e-19
c6814 1068 0 1.68964e-19
c6815 1064 0 1.55891e-19
c6816 1038 0 1.69546e-19
c6817 1019 0 1.29335e-19
c6818 1012 0 1.71069e-19
c6819 996 0 1.53706e-19
c6820 991 0 8.83293e-20
c6821 984 0 1.70293e-19
c6822 977 0 1.6479e-19
c6823 970 0 1.67703e-19
c6824 963 0 3.626e-19
c6825 956 0 1.27299e-19
c6826 949 0 1.67966e-19
c6827 921 0 1.67703e-19
c6828 900 0 6.94276e-20
c6829 877 0 1.72559e-19
c6830 872 0 3.21461e-19
c6831 865 0 1.53706e-19
c6832 847 0 5.89734e-20
c6833 844 0 1.7062e-19
c6834 830 0 1.30234e-19
c6835 814 0 1.183e-19
c6836 798 0 1.68685e-19
c6837 767 0 1.67703e-19
c6838 751 0 1.45562e-19
c6839 746 0 1.72489e-19
c6840 742 0 1.71542e-19
c6841 739 0 1.82135e-19
c6842 721 0 7.15243e-20
c6843 700 0 9.60233e-20
c6844 695 0 1.53648e-19
c6845 690 0 1.29598e-19
c6846 676 0 1.53486e-19
c6847 634 0 1.81353e-19
c6848 609 0 1.92184e-19
c6849 588 0 1.13609e-19
c6850 522 0 1.67966e-19
c6851 471 0 1.29455e-19
c6852 354 0 1.71069e-19
c6853 333 0 1.31775e-19
c6854 291 0 1.29438e-19
c6855 284 0 1.682e-19
c6856 277 0 1.183e-19
c6857 249 0 1.71089e-19
c6858 186 0 2.6523e-19
c6859 161 0 1.61502e-19
c6860 126 0 1.93646e-19
c6861 109 0 9.70344e-20
c6862 63 0 1.32153e-19
c6863 28 0 1.61523e-19
c6864 1 0 0.00332223f
r6865 1710 2059 0.33036
r6866 1709 1710 1.7
r6867 1706 1709 3.76627
r6868 1706 1707 1.7
r6869 1703 1706 6.47772
r6870 1703 1704 1.7
r6871 1700 1703 6.48035
r6872 1700 1701 1.7
r6873 1697 1700 6.4764
r6874 1697 1698 1.7
r6875 1694 1697 6.48035
r6876 1694 1695 1.7
r6877 1691 1694 6.48035
r6878 1691 1692 1.7
r6879 1687 1691 0.618932
r6880 1687 1688 1.7
r6881 1684 2059 43.8079
r6882 1683 1684 1.7
r6883 1680 1683 3.76561
r6884 1680 1681 1.7
r6885 1677 1680 6.48035
r6886 1677 1678 1.7
r6887 1674 1677 6.4764
r6888 1674 1675 1.7
r6889 1671 1674 6.48101
r6890 1671 1672 1.7
r6891 1668 1671 6.47837
r6892 1668 1669 1.7
r6893 1665 1668 6.48101
r6894 1665 1666 1.7
r6895 1662 1688 44.1382
r6896 1661 1665 0.617615
r6897 1661 1662 1.7
r6898 1658 1701 2.56966
r6899 1658 1659 0.0284163
r6900 1654 1707 2.68332
r6901 1654 1656 0.0284163
r6902 1650 1698 3.18851
r6903 1650 1652 0.0284163
r6904 1646 1695 3.18851
r6905 1646 1648 0.0284163
r6906 1642 1692 3.18851
r6907 1642 1644 0.0284163
r6908 1624 1704 5.21218
r6909 1624 1625 0.0284163
r6910 1247 1678 4.70699
r6911 1247 1249 0.0284163
r6912 1243 1681 4.4544
r6913 1243 1245 0.0284163
r6914 1239 1675 3.98807
r6915 1239 1241 0.0284163
r6916 1235 1666 3.69661
r6917 1235 1237 0.0284163
r6918 1231 1669 3.48288
r6919 1231 1233 0.0284163
r6920 1229 1672 3.22932
r6921 1229 1230 0.0284163
r6922 1226 2039 10
r6923 1224 1659 0.0168501
r6924 1224 1226 1.47476
r6925 1221 2038 10
r6926 1219 1656 0.0168501
r6927 1219 1221 1.46893
r6928 1216 2037 10
r6929 1214 1652 0.0168501
r6930 1214 1216 1.46893
r6931 1211 2036 10
r6932 1209 1648 0.0168501
r6933 1209 1211 1.46893
r6934 1206 2035 10
r6935 1204 1644 0.0168501
r6936 1204 1206 1.46893
r6937 1203 1641 0.0284163
r6938 1202 1656 0.0284163
r6939 1202 1203 0.67326
r6940 1199 2034 10
r6941 1197 1641 0.0168501
r6942 1197 1199 1.47573
r6943 1196 1639 0.0284163
r6944 1195 1648 0.0284163
r6945 1195 1196 0.71212
r6946 1194 1636 0.0284163
r6947 1193 1644 0.0284163
r6948 1193 1194 0.71212
r6949 1190 2033 10
r6950 1188 1639 0.0168501
r6951 1188 1190 1.46699
r6952 1185 2032 10
r6953 1183 1636 0.0168501
r6954 1183 1185 1.46699
r6955 1182 1633 0.0284163
r6956 1181 1641 0.0284163
r6957 1181 1182 0.903509
r6958 1180 1630 0.0284163
r6959 1179 1659 0.0284163
r6960 1179 1180 1.79244
r6961 1176 2031 10
r6962 1174 1633 0.0168501
r6963 1174 1176 1.47573
r6964 1171 2030 10
r6965 1169 1630 0.0168501
r6966 1169 1171 1.47476
r6967 1168 1627 0.0284163
r6968 1167 1652 0.0284163
r6969 1167 1168 1.43104
r6970 1164 2029 10
r6971 1162 1627 0.0168501
r6972 1162 1164 1.46699
r6973 1161 1622 0.0284163
r6974 1160 1633 0.0284163
r6975 1160 1161 0.728636
r6976 1157 2028 10
r6977 1155 1625 0.0168501
r6978 1155 1157 1.47573
r6979 1152 2027 10
r6980 1150 1622 0.0168501
r6981 1150 1152 1.46699
r6982 1149 1619 0.0284163
r6983 1148 1639 0.0284163
r6984 1148 1149 1.43104
r6985 1145 2026 10
r6986 1143 1619 0.0168501
r6987 1143 1145 1.46893
r6988 1142 1616 0.0284163
r6989 1141 1630 0.0284163
r6990 1141 1142 1.17748
r6991 1138 2025 10
r6992 1136 1616 0.0168501
r6993 1136 1138 1.46893
r6994 1135 1613 0.0284163
r6995 1134 1627 0.0284163
r6996 1134 1135 1.17262
r6997 1133 1610 0.0284163
r6998 1132 1636 0.0284163
r6999 1132 1133 1.89154
r7000 1129 2024 10
r7001 1127 1613 0.0168501
r7002 1127 1129 1.46893
r7003 1124 2023 10
r7004 1122 1610 0.0168501
r7005 1122 1124 1.46893
r7006 1121 1607 0.0284163
r7007 1120 1625 0.0284163
r7008 1120 1121 0.903509
r7009 1117 2022 10
r7010 1115 1607 0.0168501
r7011 1115 1117 1.47573
r7012 1114 1605 0.0284163
r7013 1113 1607 0.0284163
r7014 1113 1114 0.689776
r7015 1110 2021 10
r7016 1108 1605 0.0168501
r7017 1108 1110 1.47573
r7018 1107 1603 0.0284163
r7019 1106 1605 0.0284163
r7020 1106 1107 0.903509
r7021 1103 2020 10
r7022 1101 1603 0.0168501
r7023 1101 1103 1.47573
r7024 1100 1600 0.0284163
r7025 1099 1603 0.0284163
r7026 1099 1100 0.728636
r7027 1096 2019 10
r7028 1094 1600 0.0168501
r7029 1094 1096 1.46699
r7030 1093 1597 0.0284163
r7031 1092 1619 0.0284163
r7032 1092 1093 4.45925
r7033 1089 2018 10
r7034 1087 1597 0.0168501
r7035 1087 1089 1.46893
r7036 1086 1595 0.0284163
r7037 1085 1616 0.0284163
r7038 1085 1086 4.59818
r7039 1082 2017 10
r7040 1080 1595 0.0168501
r7041 1080 1082 1.47476
r7042 1079 1593 0.0284163
r7043 1078 1610 0.0284163
r7044 1078 1079 4.50103
r7045 1075 2016 10
r7046 1073 1593 0.0168501
r7047 1073 1075 1.46699
r7048 1072 1590 0.0284163
r7049 1071 1622 0.0284163
r7050 1071 1072 5.68045
r7051 1068 2015 10
r7052 1066 1590 0.0168501
r7053 1066 1068 1.46893
r7054 1065 1587 0.0284163
r7055 1064 1613 0.0284163
r7056 1064 1065 5.47254
r7057 1061 2014 10
r7058 1059 1587 0.0168501
r7059 1059 1061 1.46699
r7060 1058 1584 0.0284163
r7061 1057 1597 0.0284163
r7062 1057 1058 1.89154
r7063 1054 2013 10
r7064 1052 1584 0.0168501
r7065 1052 1054 1.46699
r7066 1051 1581 0.0284163
r7067 1050 1595 0.0284163
r7068 1050 1051 1.79244
r7069 1047 2012 10
r7070 1045 1581 0.0168501
r7071 1045 1047 1.47476
r7072 1044 1578 0.0284163
r7073 1043 1593 0.0284163
r7074 1043 1044 1.89154
r7075 1042 1575 0.0284163
r7076 1041 1590 0.0284163
r7077 1041 1042 1.43104
r7078 1038 2011 10
r7079 1036 1578 0.0168501
r7080 1036 1038 1.46893
r7081 1033 2010 10
r7082 1031 1575 0.0168501
r7083 1031 1033 1.46699
r7084 1030 1572 0.0284163
r7085 1029 1587 0.0284163
r7086 1029 1030 1.42813
r7087 1028 1569 0.0284163
r7088 1027 1581 0.0284163
r7089 1027 1028 0.716978
r7090 1024 2009 10
r7091 1022 1572 0.0168501
r7092 1022 1024 1.46699
r7093 1019 2008 10
r7094 1017 1569 0.0168501
r7095 1017 1019 1.46893
r7096 1016 1566 0.0284163
r7097 1015 1578 0.0284163
r7098 1015 1016 0.715035
r7099 1012 2007 10
r7100 1010 1566 0.0168501
r7101 1010 1012 1.46893
r7102 1009 1563 0.0284163
r7103 1008 1584 0.0284163
r7104 1008 1009 1.42813
r7105 1005 2006 10
r7106 1003 1563 0.0168501
r7107 1003 1005 1.46699
r7108 1002 1560 0.0284163
r7109 1001 1575 0.0284163
r7110 1001 1002 1.17262
r7111 1000 1557 0.0284163
r7112 999 1600 0.0284163
r7113 999 1000 4.92558
r7114 996 2005 10
r7115 994 1560 0.0168501
r7116 994 996 1.46893
r7117 991 2004 10
r7118 989 1557 0.0168501
r7119 989 991 1.46699
r7120 988 1554 0.0284163
r7121 987 1557 0.0284163
r7122 987 988 1.17262
r7123 984 2003 10
r7124 982 1554 0.0168501
r7125 982 984 1.46893
r7126 981 1551 0.0284163
r7127 980 1563 0.0284163
r7128 980 981 2.18591
r7129 977 2002 10
r7130 975 1551 0.0168501
r7131 975 977 1.46699
r7132 974 1548 0.0284163
r7133 973 1569 0.0284163
r7134 973 974 2.899
r7135 970 2001 10
r7136 968 1548 0.0168501
r7137 968 970 1.46893
r7138 967 1545 0.0284163
r7139 966 1554 0.0284163
r7140 966 967 1.17553
r7141 963 2000 10
r7142 961 1545 0.0168501
r7143 961 963 1.46893
r7144 960 1542 0.0284163
r7145 959 1551 0.0284163
r7146 959 960 0.709206
r7147 956 1999 10
r7148 954 1542 0.0168501
r7149 954 956 1.46699
r7150 953 1539 0.0284163
r7151 952 1548 0.0284163
r7152 952 953 1.17553
r7153 949 1998 10
r7154 947 1539 0.0168501
r7155 947 949 1.89428
r7156 946 1537 0.0284163
r7157 945 1572 0.0284163
r7158 945 946 5.10045
r7159 944 1536 0.0284163
r7160 943 1566 0.0284163
r7161 943 944 4.80608
r7162 940 1997 10
r7163 938 1537 0.0168501
r7164 938 940 1.47476
r7165 935 1996 10
r7166 933 1536 0.0168501
r7167 933 935 1.47476
r7168 932 1534 0.0284163
r7169 931 1560 0.0284163
r7170 931 932 4.71476
r7171 928 1995 10
r7172 926 1534 0.0168501
r7173 926 928 1.46699
r7174 925 1531 0.0284163
r7175 924 1545 0.0284163
r7176 924 925 2.4385
r7177 921 1994 10
r7178 919 1531 0.0168501
r7179 919 921 1.46893
r7180 918 1528 0.0284163
r7181 917 1534 0.0284163
r7182 917 918 0.709206
r7183 914 1993 10
r7184 912 1528 0.0168501
r7185 912 914 1.46699
r7186 911 1525 0.0284163
r7187 910 1537 0.0284163
r7188 910 911 1.79244
r7189 909 1522 0.0284163
r7190 908 1536 0.0284163
r7191 908 909 1.79244
r7192 905 1992 10
r7193 903 1525 0.0168501
r7194 903 905 1.47476
r7195 900 1991 10
r7196 898 1522 0.0168501
r7197 898 900 1.47476
r7198 897 1519 0.0284163
r7199 896 1531 0.0284163
r7200 896 897 1.43104
r7201 893 1990 10
r7202 891 1519 0.0168501
r7203 891 893 1.46699
r7204 890 1516 0.0284163
r7205 889 1539 0.0284163
r7206 889 890 3.49065
r7207 888 1513 0.0284163
r7208 887 1525 0.0284163
r7209 887 888 0.716978
r7210 886 1510 0.0284163
r7211 885 1522 0.0284163
r7212 885 886 0.716978
r7213 882 1989 10
r7214 880 1516 0.0168501
r7215 880 882 1.46699
r7216 877 1988 10
r7217 875 1513 0.0168501
r7218 875 877 1.46893
r7219 872 1987 10
r7220 870 1510 0.0168501
r7221 870 872 1.46893
r7222 869 1507 0.0284163
r7223 868 1528 0.0284163
r7224 868 869 1.89154
r7225 865 1986 10
r7226 863 1507 0.0168501
r7227 863 865 1.46893
r7228 862 1504 0.0284163
r7229 861 1542 0.0284163
r7230 861 862 5.17817
r7231 858 1985 10
r7232 856 1504 0.0168501
r7233 856 858 1.46699
r7234 855 1501 0.0284163
r7235 854 1519 0.0284163
r7236 854 855 1.68072
r7237 851 1984 10
r7238 849 1501 0.0168501
r7239 849 851 1.46699
r7240 848 1498 0.0284163
r7241 847 1516 0.0284163
r7242 847 848 2.64932
r7243 844 1983 10
r7244 842 1498 0.0168501
r7245 842 844 1.46893
r7246 841 1496 0.0284163
r7247 840 1513 0.0284163
r7248 840 841 3.54311
r7249 837 1982 10
r7250 835 1496 0.0168501
r7251 835 837 1.47476
r7252 834 1494 0.0284163
r7253 833 1501 0.0284163
r7254 833 834 2.68818
r7255 830 1981 10
r7256 828 1494 0.0168501
r7257 828 830 1.46893
r7258 827 1491 0.0284163
r7259 826 1510 0.0284163
r7260 826 827 4.45634
r7261 823 1980 10
r7262 821 1491 0.0168501
r7263 821 823 1.46699
r7264 820 1488 0.0284163
r7265 819 1496 0.0284163
r7266 819 820 1.79244
r7267 818 1485 0.0284163
r7268 817 1494 0.0284163
r7269 817 818 1.43104
r7270 814 1979 10
r7271 812 1488 0.0168501
r7272 812 814 1.47476
r7273 809 1978 10
r7274 807 1485 0.0168501
r7275 807 809 1.46699
r7276 806 1482 0.0284163
r7277 805 1504 0.0284163
r7278 805 806 4.96153
r7279 804 1479 0.0284163
r7280 803 1507 0.0284163
r7281 803 804 5.47254
r7282 802 1476 0.0284163
r7283 801 1491 0.0284163
r7284 801 802 1.42813
r7285 798 1977 10
r7286 796 1482 0.0168501
r7287 796 798 1.46893
r7288 793 1976 10
r7289 791 1479 0.0168501
r7290 791 793 1.46699
r7291 788 1975 10
r7292 786 1476 0.0168501
r7293 786 788 1.46699
r7294 785 1474 0.0284163
r7295 784 1498 0.0284163
r7296 784 785 3.5878
r7297 781 1974 10
r7298 779 1474 0.0168501
r7299 779 781 1.47476
r7300 778 1472 0.0284163
r7301 777 1479 0.0284163
r7302 777 778 0.709206
r7303 774 1973 10
r7304 772 1472 0.0168501
r7305 772 774 1.46699
r7306 771 1469 0.0284163
r7307 770 1488 0.0284163
r7308 770 771 1.68266
r7309 767 1972 10
r7310 765 1469 0.0168501
r7311 765 767 1.46893
r7312 764 1466 0.0284163
r7313 763 1482 0.0284163
r7314 763 764 1.43104
r7315 760 1971 10
r7316 758 1466 0.0168501
r7317 758 760 1.46699
r7318 757 1463 0.0284163
r7319 756 1476 0.0284163
r7320 756 757 1.89154
r7321 755 1460 0.0284163
r7322 754 1469 0.0284163
r7323 754 755 0.715035
r7324 751 1970 10
r7325 749 1463 0.0168501
r7326 749 751 1.46893
r7327 746 1969 10
r7328 744 1460 0.0168501
r7329 744 746 1.46893
r7330 743 1457 0.0284163
r7331 742 1474 0.0284163
r7332 742 743 1.79244
r7333 739 1968 10
r7334 737 1457 0.0168501
r7335 737 739 1.9018
r7336 736 1455 0.0284163
r7337 735 1485 0.0284163
r7338 735 736 3.48677
r7339 734 1454 0.0284163
r7340 733 1457 0.0284163
r7341 733 734 0.733494
r7342 730 1967 10
r7343 728 1455 0.0168501
r7344 728 730 1.45436
r7345 725 1966 10
r7346 723 1454 0.0168501
r7347 723 725 1.47573
r7348 722 1452 0.0284163
r7349 721 1454 0.0284163
r7350 721 722 0.903509
r7351 718 1965 10
r7352 716 1452 0.0168501
r7353 716 718 1.47573
r7354 715 1449 0.0284163
r7355 714 1466 0.0284163
r7356 714 715 2.94369
r7357 713 1446 0.0284163
r7358 712 1455 0.0284163
r7359 712 713 1.41647
r7360 709 1964 10
r7361 707 1449 0.0168501
r7362 707 709 1.46699
r7363 704 1962 10
r7364 702 1446 0.0168501
r7365 702 704 1.45436
r7366 701 1444 0.0284163
r7367 700 1460 0.0284163
r7368 700 701 2.68721
r7369 699 1442 0.0284163
r7370 698 1452 0.0284163
r7371 698 699 0.67326
r7372 695 1961 10
r7373 693 1444 0.0168501
r7374 693 695 1.45436
r7375 690 1960 10
r7376 688 1442 0.0168501
r7377 688 690 1.46893
r7378 687 1440 0.0284163
r7379 686 1446 0.0284163
r7380 686 687 0.580966
r7381 683 1959 10
r7382 681 1440 0.0168501
r7383 681 683 1.45241
r7384 680 1438 0.0284163
r7385 679 1449 0.0284163
r7386 679 680 1.01038
r7387 676 1957 15
r7388 674 1438 0.0168501
r7389 674 676 1.4903
r7390 673 1435 0.0284163
r7391 672 1472 0.0284163
r7392 672 673 4.96444
r7393 669 1956 10
r7394 667 1435 0.0168501
r7395 667 669 1.46699
r7396 666 1432 0.0284163
r7397 665 1444 0.0284163
r7398 665 666 1.41647
r7399 664 1429 0.0284163
r7400 663 1440 0.0284163
r7401 663 664 1.07352
r7402 660 1954 10
r7403 658 1432 0.0168501
r7404 658 660 1.45436
r7405 655 1952 15
r7406 653 1429 0.0168501
r7407 653 655 1.4903
r7408 652 1427 0.0284163
r7409 651 1438 0.0284163
r7410 651 652 0.995803
r7411 648 1950 15
r7412 646 1427 0.0168501
r7413 646 648 1.4903
r7414 645 1426 0.0284163
r7415 644 1432 0.0284163
r7416 644 645 0.580966
r7417 641 1949 10
r7418 639 1426 0.0168501
r7419 639 641 1.45241
r7420 638 1425 0.0284163
r7421 637 1435 0.0284163
r7422 637 638 1.42716
r7423 634 1948 10
r7424 632 1425 0.0168501
r7425 632 634 1.45436
r7426 631 1424 0.0284163
r7427 630 1429 0.0284163
r7428 630 631 0.995803
r7429 627 1946 15
r7430 625 1424 0.0168501
r7431 625 627 1.4903
r7432 624 1423 0.0284163
r7433 623 1442 0.0284163
r7434 623 624 2.64932
r7435 620 1945 10
r7436 618 1423 0.0168501
r7437 618 620 1.47573
r7438 617 1422 0.0284163
r7439 616 1426 0.0284163
r7440 616 617 0.771383
r7441 613 1944 10
r7442 611 1422 0.0168501
r7443 611 613 1.45436
r7444 610 1420 0.0284163
r7445 609 1427 0.0284163
r7446 609 610 1.43201
r7447 606 1942 15
r7448 604 1420 0.0168501
r7449 604 606 1.4903
r7450 603 1417 0.0284163
r7451 602 1423 0.0284163
r7452 602 603 0.903509
r7453 601 1414 0.0284163
r7454 600 1463 0.0284163
r7455 600 601 6.48292
r7456 597 1941 10
r7457 595 1417 0.0168501
r7458 595 597 1.47573
r7459 592 1940 10
r7460 590 1414 0.0168501
r7461 590 592 1.46699
r7462 589 1411 0.0284163
r7463 588 1425 0.0284163
r7464 588 589 1.41647
r7465 585 1938 10
r7466 583 1411 0.0168501
r7467 583 585 1.45436
r7468 582 1408 0.0284163
r7469 581 1424 0.0284163
r7470 581 582 1.43201
r7471 578 1936 15
r7472 576 1408 0.0168501
r7473 576 578 1.4903
r7474 575 1405 0.0284163
r7475 574 1422 0.0284163
r7476 574 575 1.41647
r7477 571 1934 10
r7478 569 1405 0.0168501
r7479 569 571 1.87549
r7480 568 1403 0.0284163
r7481 567 1420 0.0284163
r7482 567 568 1.14736
r7483 566 1402 0.0284163
r7484 565 1411 0.0284163
r7485 565 566 0.580966
r7486 562 1932 15
r7487 560 1403 0.0168501
r7488 560 562 1.4903
r7489 557 1931 10
r7490 555 1402 0.0168501
r7491 555 557 1.45241
r7492 554 1401 0.0284163
r7493 553 1405 0.0284163
r7494 553 554 0.580966
r7495 550 1930 10
r7496 548 1401 0.0168501
r7497 548 550 1.45241
r7498 547 1400 0.0284163
r7499 546 1408 0.0284163
r7500 546 547 1.14736
r7501 543 1928 15
r7502 541 1400 0.0168501
r7503 541 543 1.4903
r7504 540 1399 0.0284163
r7505 539 1400 0.0284163
r7506 539 540 0.888936
r7507 536 1927 10
r7508 534 1399 0.0168501
r7509 534 536 1.45241
r7510 533 1398 0.0284163
r7511 532 1414 0.0284163
r7512 532 533 2.72899
r7513 529 1926 10
r7514 527 1398 0.0168501
r7515 527 529 1.45436
r7516 526 1396 0.0284163
r7517 525 1417 0.0284163
r7518 525 526 3.0049
r7519 522 1925 10
r7520 520 1396 0.0168501
r7521 520 522 1.46893
r7522 519 1393 0.0284163
r7523 518 1399 0.0284163
r7524 518 519 0.580966
r7525 515 1923 10
r7526 513 1393 0.0168501
r7527 513 515 1.45436
r7528 512 1390 0.0284163
r7529 511 1403 0.0284163
r7530 511 512 2.55508
r7531 508 1922 10
r7532 506 1390 0.0168501
r7533 506 508 1.46699
r7534 505 1388 0.0284163
r7535 504 1402 0.0284163
r7536 504 505 2.85625
r7537 501 1921 10
r7538 499 1388 0.0168501
r7539 499 501 1.45241
r7540 498 1386 0.0284163
r7541 497 1398 0.0284163
r7542 497 498 1.41647
r7543 494 1919 10
r7544 492 1386 0.0168501
r7545 492 494 1.45436
r7546 491 1383 0.0284163
r7547 490 1388 0.0284163
r7548 490 491 0.580966
r7549 489 1380 0.0284163
r7550 488 1390 0.0284163
r7551 488 489 1.01038
r7552 485 1917 10
r7553 483 1383 0.0168501
r7554 483 485 1.45436
r7555 480 1915 15
r7556 478 1380 0.0168501
r7557 478 480 1.4903
r7558 477 1377 0.0284163
r7559 476 1396 0.0284163
r7560 476 477 1.63603
r7561 475 1375 0.0284163
r7562 474 1393 0.0284163
r7563 474 475 1.41647
r7564 471 1914 10
r7565 469 1377 0.0168501
r7566 469 471 1.46893
r7567 466 1913 10
r7568 464 1375 0.0168501
r7569 464 466 1.45436
r7570 463 1374 0.0284163
r7571 462 1386 0.0284163
r7572 462 463 0.580966
r7573 459 1912 10
r7574 457 1374 0.0168501
r7575 457 459 1.45241
r7576 456 1373 0.0284163
r7577 455 1401 0.0284163
r7578 455 456 4.06093
r7579 454 1372 0.0284163
r7580 453 1375 0.0284163
r7581 453 454 0.727665
r7582 450 1911 10
r7583 448 1373 0.0168501
r7584 448 450 1.47476
r7585 445 1910 10
r7586 443 1372 0.0168501
r7587 443 445 1.47573
r7588 442 1371 0.0284163
r7589 441 1380 0.0284163
r7590 441 442 0.995803
r7591 438 1908 15
r7592 436 1371 0.0168501
r7593 436 438 1.4903
r7594 435 1370 0.0284163
r7595 434 1374 0.0284163
r7596 434 435 0.771383
r7597 431 1907 10
r7598 429 1370 0.0168501
r7599 429 431 1.45436
r7600 428 1369 0.0284163
r7601 427 1383 0.0284163
r7602 427 428 1.41647
r7603 424 1906 10
r7604 422 1369 0.0168501
r7605 422 424 1.45436
r7606 421 1367 0.0284163
r7607 420 1372 0.0284163
r7608 420 421 0.903509
r7609 417 1905 10
r7610 415 1367 0.0168501
r7611 415 417 1.90305
r7612 414 1365 0.0284163
r7613 413 1369 0.0284163
r7614 413 414 0.771383
r7615 410 1904 10
r7616 408 1365 0.0168501
r7617 408 410 1.45241
r7618 407 1363 0.0284163
r7619 406 1371 0.0284163
r7620 406 407 1.43201
r7621 403 1902 15
r7622 401 1363 0.0168501
r7623 401 403 1.4903
r7624 400 1360 0.0284163
r7625 399 1370 0.0284163
r7626 399 400 1.41647
r7627 396 1900 10
r7628 394 1360 0.0168501
r7629 394 396 1.45436
r7630 393 1357 0.0284163
r7631 392 1373 0.0284163
r7632 392 393 1.79244
r7633 389 1899 10
r7634 387 1357 0.0168501
r7635 387 389 1.47476
r7636 386 1354 0.0284163
r7637 385 1365 0.0284163
r7638 385 386 0.580966
r7639 382 1897 10
r7640 380 1354 0.0168501
r7641 380 382 1.45436
r7642 379 1352 0.0284163
r7643 378 1360 0.0284163
r7644 378 379 0.580966
r7645 375 1896 10
r7646 373 1352 0.0168501
r7647 373 375 1.45241
r7648 372 1351 0.0284163
r7649 371 1377 0.0284163
r7650 371 372 3.5878
r7651 370 1350 0.0284163
r7652 369 1363 0.0284163
r7653 369 370 1.14736
r7654 366 1895 10
r7655 364 1351 0.0168501
r7656 364 366 1.47476
r7657 361 1893 15
r7658 359 1350 0.0168501
r7659 359 361 1.4903
r7660 358 1348 0.0284163
r7661 357 1352 0.0284163
r7662 357 358 0.775269
r7663 354 1892 10
r7664 352 1348 0.0168501
r7665 352 354 1.46893
r7666 351 1345 0.0284163
r7667 350 1357 0.0284163
r7668 350 351 1.52528
r7669 349 1343 0.0284163
r7670 348 1354 0.0284163
r7671 348 349 1.41647
r7672 345 1891 10
r7673 343 1345 0.0168501
r7674 343 345 1.46699
r7675 340 1890 10
r7676 338 1343 0.0168501
r7677 338 340 1.45436
r7678 337 1341 0.0284163
r7679 336 1345 0.0284163
r7680 336 337 0.71212
r7681 333 1889 10
r7682 331 1341 0.0168501
r7683 331 333 1.46893
r7684 330 1338 0.0284163
r7685 329 1351 0.0284163
r7686 329 330 1.79244
r7687 326 1888 10
r7688 324 1338 0.0168501
r7689 324 326 1.47476
r7690 323 1335 0.0284163
r7691 322 1367 0.0284163
r7692 322 323 5.17817
r7693 319 1887 10
r7694 317 1335 0.0168501
r7695 317 319 1.46699
r7696 316 1332 0.0284163
r7697 315 1338 0.0284163
r7698 315 316 2.19077
r7699 314 1329 0.0284163
r7700 313 1343 0.0284163
r7701 313 314 3.48677
r7702 312 1326 0.0284163
r7703 311 1348 0.0284163
r7704 311 312 3.69856
r7705 310 1323 0.0284163
r7706 309 1335 0.0284163
r7707 309 310 0.71212
r7708 306 1886 10
r7709 304 1332 0.0168501
r7710 304 306 1.46699
r7711 301 1885 10
r7712 299 1329 0.0168501
r7713 299 301 1.46699
r7714 296 1884 10
r7715 294 1326 0.0168501
r7716 294 296 1.46699
r7717 291 1883 10
r7718 289 1323 0.0168501
r7719 289 291 1.46893
r7720 288 1320 0.0284163
r7721 287 1350 0.0284163
r7722 287 288 4.36502
r7723 284 1882 10
r7724 282 1320 0.0168501
r7725 282 284 1.46893
r7726 281 1318 0.0284163
r7727 280 1341 0.0284163
r7728 280 281 3.45082
r7729 277 1881 10
r7730 275 1318 0.0168501
r7731 275 277 1.47476
r7732 274 1317 0.0284163
r7733 273 1329 0.0284163
r7734 273 274 1.42716
r7735 272 1316 0.0284163
r7736 271 1326 0.0284163
r7737 271 272 1.42716
r7738 270 1314 0.0284163
r7739 269 1320 0.0284163
r7740 269 270 1.17262
r7741 266 1880 10
r7742 264 1317 0.0168501
r7743 264 266 1.45436
r7744 261 1879 10
r7745 259 1316 0.0168501
r7746 259 261 1.45436
r7747 256 1878 10
r7748 254 1314 0.0168501
r7749 254 256 1.46699
r7750 253 1311 0.0284163
r7751 252 1323 0.0284163
r7752 252 253 1.93331
r7753 249 1877 10
r7754 247 1311 0.0168501
r7755 247 249 1.46893
r7756 246 1308 0.0284163
r7757 245 1318 0.0284163
r7758 245 246 1.79244
r7759 242 1876 10
r7760 240 1308 0.0168501
r7761 240 242 1.47476
r7762 239 1305 0.0284163
r7763 238 1317 0.0284163
r7764 238 239 1.41647
r7765 237 1302 0.0284163
r7766 236 1316 0.0284163
r7767 236 237 1.41647
r7768 233 1874 10
r7769 231 1305 0.0168501
r7770 231 233 1.45436
r7771 228 1872 10
r7772 226 1302 0.0168501
r7773 226 228 1.45436
r7774 225 1300 0.0284163
r7775 224 1308 0.0284163
r7776 224 225 0.811215
r7777 221 1871 10
r7778 219 1300 0.0168501
r7779 219 221 1.47476
r7780 218 1299 0.0284163
r7781 217 1305 0.0284163
r7782 217 218 0.580966
r7783 216 1298 0.0284163
r7784 215 1302 0.0284163
r7785 215 216 0.580966
r7786 212 1870 10
r7787 210 1299 0.0168501
r7788 210 212 1.45241
r7789 207 1869 10
r7790 205 1298 0.0168501
r7791 205 207 1.45241
r7792 204 1296 0.0284163
r7793 203 1300 0.0284163
r7794 203 204 1.79244
r7795 200 1868 10
r7796 198 1296 0.0168501
r7797 198 200 1.47476
r7798 197 1293 0.0284163
r7799 196 1311 0.0284163
r7800 196 197 3.49454
r7801 193 1866 15
r7802 191 1293 0.0168501
r7803 191 193 1.4903
r7804 190 1291 0.0284163
r7805 189 1314 0.0284163
r7806 189 190 4.71088
r7807 186 1865 10
r7808 184 1291 0.0168501
r7809 184 186 1.45436
r7810 183 1290 0.0284163
r7811 182 1296 0.0284163
r7812 182 183 1.1221
r7813 181 1289 0.0284163
r7814 180 1293 0.0284163
r7815 180 181 0.995803
r7816 177 1864 10
r7817 175 1290 0.0168501
r7818 175 177 1.45241
r7819 172 1862 15
r7820 170 1289 0.0168501
r7821 170 172 1.4903
r7822 169 1288 0.0284163
r7823 168 1298 0.0284163
r7824 168 169 3.10885
r7825 165 1861 10
r7826 163 1288 0.0168501
r7827 163 165 1.45241
r7828 162 1286 0.0284163
r7829 161 1332 0.0284163
r7830 161 162 6.98519
r7831 158 1860 10
r7832 156 1286 0.0168501
r7833 156 158 1.46699
r7834 155 1283 0.0284163
r7835 154 1290 0.0284163
r7836 154 155 0.580966
r7837 151 1858 10
r7838 149 1283 0.0168501
r7839 149 151 1.45436
r7840 148 1280 0.0284163
r7841 147 1288 0.0284163
r7842 147 148 0.580966
r7843 144 1856 10
r7844 142 1280 0.0168501
r7845 142 144 1.45436
r7846 141 1278 0.0284163
r7847 140 1299 0.0284163
r7848 140 141 3.86663
r7849 137 1855 10
r7850 135 1278 0.0168501
r7851 135 137 1.45241
r7852 134 1276 0.0284163
r7853 133 1291 0.0284163
r7854 133 134 1.41647
r7855 130 1853 10
r7856 128 1276 0.0168501
r7857 128 130 1.45436
r7858 127 1273 0.0284163
r7859 126 1289 0.0284163
r7860 126 127 1.43201
r7861 123 1851 15
r7862 121 1273 0.0168501
r7863 121 123 1.4903
r7864 120 1270 0.0284163
r7865 119 1278 0.0284163
r7866 119 120 0.580966
r7867 116 1849 10
r7868 114 1270 0.0168501
r7869 114 116 1.45436
r7870 113 1268 0.0284163
r7871 112 1276 0.0284163
r7872 112 113 0.580966
r7873 109 1848 10
r7874 107 1268 0.0168501
r7875 107 109 1.45241
r7876 106 1267 0.0284163
r7877 105 1283 0.0284163
r7878 105 106 1.41647
r7879 102 1847 10
r7880 100 1267 0.0168501
r7881 100 102 1.45436
r7882 99 1266 0.0284163
r7883 98 1280 0.0284163
r7884 98 99 1.41647
r7885 95 1846 10
r7886 93 1266 0.0168501
r7887 93 95 1.45436
r7888 92 1264 0.0284163
r7889 91 1268 0.0284163