* File: Top_alu.pex.netlist
* Created: Wed May  1 13:43:26 2024
* Program "Calibre xRC"
* Version "v2013.2_18.13"
* 
.include "Top_alu.pex.netlist.pex"
.subckt Top_alu  GND! OUT<3> OUT<1> OUT<0> OUT<2> VDD! INST<0> CLK A<3> A<1>
+ A<2> A<0> INST<1> RESET
* 
* RESET	RESET
* INST<1>	INST<1>
* A<0>	A<0>
* A<2>	A<2>
* A<1>	A<1>
* A<3>	A<3>
* CLK	CLK
* INST<0>	INST<0>
* VDD	VDD
* OUT<2>	OUT<2>
* OUT<0>	OUT<0>
* OUT<1>	OUT<1>
* OUT<3>	OUT<3>
* VSS	VSS
XD0_noxref N_GND!_D0_noxref_pos N_VDD!_D0_noxref_neg DIODENWX  AREA=2.52375e-11
+ PERIM=2.4516e-05
XD1_noxref N_GND!_D0_noxref_pos N_VDD!_D1_noxref_neg DIODENWX  AREA=2.93216e-11
+ PERIM=2.7636e-05
XD2_noxref N_GND!_D0_noxref_pos N_VDD!_D2_noxref_neg DIODENWX  AREA=1.30062e-10
+ PERIM=0.000104596
XD3_noxref N_GND!_D0_noxref_pos N_VDD!_D3_noxref_neg DIODENWX  AREA=5.65488e-11
+ PERIM=4.8436e-05
XD4_noxref N_GND!_D0_noxref_pos N_VDD!_D4_noxref_neg DIODENWX  AREA=9.39862e-11
+ PERIM=7.7036e-05
XD5_noxref N_GND!_D0_noxref_pos N_VDD!_D5_noxref_neg DIODENWX  AREA=1.49121e-10
+ PERIM=0.000119156
XD6_noxref N_GND!_D0_noxref_pos N_VDD!_D6_noxref_neg DIODENWX  AREA=8.00584e-11
+ PERIM=6.6396e-05
XD7_noxref N_GND!_D0_noxref_pos N_VDD!_D7_noxref_neg DIODENWX  AREA=7.49272e-11
+ PERIM=6.2476e-05
XD8_noxref N_GND!_D0_noxref_pos N_VDD!_D8_noxref_neg DIODENWX  AREA=1.09432e-11
+ PERIM=1.3596e-05
XD9_noxref N_GND!_D0_noxref_pos N_VDD!_D9_noxref_neg DIODENWX  AREA=9.26248e-11
+ PERIM=7.5996e-05
XD10_noxref N_GND!_D0_noxref_pos N_VDD!_D10_noxref_neg DIODENWX 
+ AREA=4.34588e-11 PERIM=3.8436e-05
XD11_noxref N_GND!_D0_noxref_pos N_VDD!_D11_noxref_neg DIODENWX 
+ AREA=2.08916e-11 PERIM=2.1196e-05
XD12_noxref N_GND!_D0_noxref_pos N_VDD!_D12_noxref_neg DIODENWX  AREA=3.927e-11
+ PERIM=3.5236e-05
XD13_noxref N_GND!_D0_noxref_pos N_VDD!_D13_noxref_neg DIODENWX 
+ AREA=1.82736e-11 PERIM=1.9196e-05
XD14_noxref N_GND!_D0_noxref_pos N_VDD!_D14_noxref_neg DIODENWX 
+ AREA=3.39293e-11 PERIM=3.1156e-05
XD15_noxref N_GND!_D0_noxref_pos N_VDD!_D15_noxref_neg DIODENWX 
+ AREA=2.45568e-11 PERIM=2.3996e-05
XD16_noxref N_GND!_D0_noxref_pos N_VDD!_D16_noxref_neg DIODENWX 
+ AREA=1.50273e-11 PERIM=1.6716e-05
XD17_noxref N_GND!_D0_noxref_pos N_VDD!_D17_noxref_neg DIODENWX 
+ AREA=1.50273e-11 PERIM=1.6716e-05
XD18_noxref N_GND!_D0_noxref_pos N_VDD!_D18_noxref_neg DIODENWX 
+ AREA=1.47655e-11 PERIM=1.6516e-05
XXadd_sub#2ffa2#2fnand3/MMN0 N_ADD_SUB#2FC2_Xadd_sub#2ffa2#2fnand3/MMN0_d
+ N_ADD_SUB#2FFA2#2FC1_Xadd_sub#2ffa2#2fnand3/MMN0_g
+ XADD_SUB#2FFA2#2FNAND3/NET14 N_GND!_D0_noxref_pos NFET L=6.5e-08 W=6e-07
+ AD=1.98e-13 AS=7.05e-14 PD=1.86e-06 PS=8.35e-07 NRD=0.425 NRS=0.195833 M=1
+ NF=1 CNR_SWITCH=0 PCCRIT=0 PAR=1 PTWELL=0 SA=3.3e-07 SB=4.75e-07 SD=0 PANW1=0
+ PANW2=0 PANW3=0 PANW4=0 PANW5=0 PANW6=5.98e-15 PANW7=1.3e-14 PANW8=1.3e-14
+ PANW9=7.02e-15 PANW10=0
XXadd_sub#2ffa3#2fU1/MMN4 XADD_SUB#2FFA3#2FU1/NET33
+ N_ADD_SUB#2FC2_Xadd_sub#2ffa3#2fU1/MMN4_g N_GND!_Xadd_sub#2ffa3#2fU1/MMN4_s
+ N_GND!_D0_noxref_pos NFET L=6.5e-08 W=6e-07 AD=1.617e-13 AS=1.068e-13
+ PD=1.139e-06 PS=1.556e-06 NRD=0.449167 NRS=0.166667 M=1 NF=1 CNR_SWITCH=0
+ PCCRIT=0 PAR=1 PTWELL=0 SA=1.78e-07 SB=2.146e-06 SD=0 PANW1=0 PANW2=0 PANW3=0
+ PANW4=0 PANW5=0 PANW6=5.98e-15 PANW7=1.3e-14 PANW8=1.3e-14 PANW9=7.02e-15
+ PANW10=0
XXadd_sub#2ffa2#2fnand3/MMN1 XADD_SUB#2FFA2#2FNAND3/NET14
+ N_ADD_SUB#2FFA2#2FC2_Xadd_sub#2ffa2#2fnand3/MMN1_g
+ N_GND!_Xadd_sub#2ffa2#2fnand3/MMN1_s N_GND!_D0_noxref_pos NFET L=6.5e-08
+ W=6e-07 AD=7.05e-14 AS=1.05e-13 PD=8.35e-07 PS=1.55e-06 NRD=0.195833
+ NRS=0.166667 M=1 NF=1 CNR_SWITCH=0 PCCRIT=0 PAR=1 PTWELL=0 SA=6.3e-07
+ SB=1.75e-07 SD=0 PANW1=0 PANW2=0 PANW3=0 PANW4=0 PANW5=0 PANW6=5.98e-15
+ PANW7=1.3e-14 PANW8=1.3e-14 PANW9=7.02e-15 PANW10=0
XXadd_sub#2ffa1#2fnand1/MMN1 XADD_SUB#2FFA1#2FNAND1/NET14
+ N_ADD_SUB#2FC0_Xadd_sub#2ffa1#2fnand1/MMN1_g
+ N_GND!_Xadd_sub#2ffa1#2fnand1/MMN1_s N_GND!_D0_noxref_pos NFET L=6.5e-08
+ W=6e-07 AD=7.05e-14 AS=1.05e-13 PD=8.35e-07 PS=1.55e-06 NRD=0.195833
+ NRS=0.166667 M=1 NF=1 CNR_SWITCH=0 PCCRIT=0 PAR=1 PTWELL=0 SA=1.75e-07
+ SB=6.3e-07 SD=0 PANW1=0 PANW2=0 PANW3=0 PANW4=0 PANW5=0 PANW6=5.98e-15
+ PANW7=1.3e-14 PANW8=1.3e-14 PANW9=7.02e-15 PANW10=0
XXadd_sub#2ffa1#2fnand1/MMN0 N_ADD_SUB#2FFA1#2FC1_Xadd_sub#2ffa1#2fnand1/MMN0_d
+ N_ADD_SUB#2FFA1#2FS1_Xadd_sub#2ffa1#2fnand1/MMN0_g
+ XADD_SUB#2FFA1#2FNAND1/NET14 N_GND!_D0_noxref_pos NFET L=6.5e-08 W=6e-07
+ AD=1.98e-13 AS=7.05e-14 PD=1.86e-06 PS=8.35e-07 NRD=0.425 NRS=0.195833 M=1
+ NF=1 CNR_SWITCH=0 PCCRIT=0 PAR=1 PTWELL=0 SA=4.75e-07 SB=3.3e-07 SD=0 PANW1=0
+ PANW2=0 PANW3=0 PANW4=0 PANW5=0 PANW6=5.98e-15 PANW7=1.3e-14 PANW8=1.3e-14
+ PANW9=7.02e-15 PANW10=0
XXadd_sub#2ffa3#2fU1/MMN3 N_SUM<3>_Xadd_sub#2ffa3#2fU1/MMN3_d
+ N_ADD_SUB#2FFA3#2FS1_Xadd_sub#2ffa3#2fU1/MMN3_g XADD_SUB#2FFA3#2FU1/NET33
+ N_GND!_D0_noxref_pos NFET L=6.5e-08 W=6e-07 AD=1.842e-13 AS=1.617e-13
+ PD=1.214e-06 PS=1.139e-06 NRD=0.753333 NRS=0.449167 M=1 NF=1 CNR_SWITCH=0
+ PCCRIT=0 PAR=1 PTWELL=0 SA=7.82e-07 SB=1.542e-06 SD=0 PANW1=0 PANW2=0 PANW3=0
+ PANW4=0 PANW5=0 PANW6=5.98e-15 PANW7=1.3e-14 PANW8=1.3e-14 PANW9=7.02e-15
+ PANW10=0
XXadd_sub#2ffa0#2fnand1/MMN0 N_ADD_SUB#2FFA0#2FC1_Xadd_sub#2ffa0#2fnand1/MMN0_d
+ N_ADD_SUB#2FFA0#2FS1_Xadd_sub#2ffa0#2fnand1/MMN0_g
+ XADD_SUB#2FFA0#2FNAND1/NET14 N_GND!_D0_noxref_pos NFET L=6.5e-08 W=6e-07
+ AD=1.98e-13 AS=7.05e-14 PD=1.86e-06 PS=8.35e-07 NRD=0.425 NRS=0.195833 M=1
+ NF=1 CNR_SWITCH=0 PCCRIT=0 PAR=1 PTWELL=0 SA=3.3e-07 SB=4.75e-07 SD=0 PANW1=0
+ PANW2=0 PANW3=0 PANW4=0 PANW5=0 PANW6=5.98e-15 PANW7=1.3e-14 PANW8=1.3e-14
+ PANW9=7.02e-15 PANW10=0
XXU4/MMN1 XU4/NET14 N_M13_XU4/MMN1_g N_GND!_XU4/MMN1_s N_GND!_D0_noxref_pos NFET
+ L=6.5e-08 W=6e-07 AD=7.05e-14 AS=1.05e-13 PD=8.35e-07 PS=1.55e-06 NRD=0.195833
+ NRS=0.166667 M=1 NF=1 CNR_SWITCH=0 PCCRIT=0 PAR=1 PTWELL=0 SA=1.75e-07
+ SB=6.3e-07 SD=0 PANW1=0 PANW2=0 PANW3=0 PANW4=0 PANW5=0 PANW6=5.98e-15
+ PANW7=1.3e-14 PANW8=1.3e-14 PANW9=7.02e-15 PANW10=0
XXadd_sub#2ffa0#2fnand3/MMN0 N_ADD_SUB#2FC0_Xadd_sub#2ffa0#2fnand3/MMN0_d
+ N_ADD_SUB#2FFA0#2FC1_Xadd_sub#2ffa0#2fnand3/MMN0_g
+ XADD_SUB#2FFA0#2FNAND3/NET14 N_GND!_D0_noxref_pos NFET L=6.5e-08 W=6e-07
+ AD=1.98e-13 AS=7.05e-14 PD=1.86e-06 PS=8.35e-07 NRD=0.425 NRS=0.195833 M=1
+ NF=1 CNR_SWITCH=0 PCCRIT=0 PAR=1 PTWELL=0 SA=3.3e-07 SB=4.75e-07 SD=0 PANW1=0
+ PANW2=0 PANW3=0 PANW4=0 PANW5=0 PANW6=5.98e-15 PANW7=1.3e-14 PANW8=1.3e-14
+ PANW9=7.02e-15 PANW10=0
XXadd_sub#2ffa0#2fnand1/MMN1 XADD_SUB#2FFA0#2FNAND1/NET14
+ N_INST<0>_Xadd_sub#2ffa0#2fnand1/MMN1_g N_GND!_Xadd_sub#2ffa0#2fnand1/MMN1_s
+ N_GND!_D0_noxref_pos NFET L=6.5e-08 W=6e-07 AD=7.05e-14 AS=1.05e-13
+ PD=8.35e-07 PS=1.55e-06 NRD=0.195833 NRS=0.166667 M=1 NF=1 CNR_SWITCH=0
+ PCCRIT=0 PAR=1 PTWELL=0 SA=6.3e-07 SB=1.75e-07 SD=0 PANW1=0 PANW2=0 PANW3=0
+ PANW4=0 PANW5=0 PANW6=5.98e-15 PANW7=1.3e-14 PANW8=1.3e-14 PANW9=7.02e-15
+ PANW10=0
XXU4/MMN0 N_M12_XU4/MMN0_d N_SUM<3>_XU4/MMN0_g XU4/NET14 N_GND!_D0_noxref_pos
+ NFET L=6.5e-08 W=6e-07 AD=1.98e-13 AS=7.05e-14 PD=1.86e-06 PS=8.35e-07
+ NRD=0.425 NRS=0.195833 M=1 NF=1 CNR_SWITCH=0 PCCRIT=0 PAR=1 PTWELL=0
+ SA=4.75e-07 SB=3.3e-07 SD=0 PANW1=0 PANW2=0 PANW3=0 PANW4=0 PANW5=0
+ PANW6=5.98e-15 PANW7=1.3e-14 PANW8=1.3e-14 PANW9=7.02e-15 PANW10=0
XXadd_sub#2ffa0#2fnand3/MMN1 XADD_SUB#2FFA0#2FNAND3/NET14
+ N_ADD_SUB#2FFA0#2FC2_Xadd_sub#2ffa0#2fnand3/MMN1_g
+ N_GND!_Xadd_sub#2ffa0#2fnand3/MMN1_s N_GND!_D0_noxref_pos NFET L=6.5e-08
+ W=6e-07 AD=7.05e-14 AS=1.05e-13 PD=8.35e-07 PS=1.55e-06 NRD=0.195833
+ NRS=0.166667 M=1 NF=1 CNR_SWITCH=0 PCCRIT=0 PAR=1 PTWELL=0 SA=6.3e-07
+ SB=1.75e-07 SD=0 PANW1=0 PANW2=0 PANW3=0 PANW4=0 PANW5=0 PANW6=5.98e-15
+ PANW7=1.3e-14 PANW8=1.3e-14 PANW9=7.02e-15 PANW10=0
XXadd_sub#2ffa3#2fU1/MMN2 N_SUM<3>_Xadd_sub#2ffa3#2fU1/MMN3_d
+ N_XADD_SUB#2FFA3#2FU1/NET19_Xadd_sub#2ffa3#2fU1/MMN2_g
+ N_GND!_Xadd_sub#2ffa3#2fU1/MMN2_s N_GND!_D0_noxref_pos NFET L=6.5e-08 W=6e-07
+ AD=1.842e-13 AS=8.22e-14 PD=1.214e-06 PS=8.74e-07 NRD=0.27 NRS=0.166667 M=1
+ NF=1 CNR_SWITCH=0 PCCRIT=0 PAR=1 PTWELL=0 SA=1.461e-06 SB=8.63e-07 SD=0
+ PANW1=0 PANW2=0 PANW3=0 PANW4=0 PANW5=0 PANW6=5.98e-15 PANW7=1.3e-14
+ PANW8=1.3e-14 PANW9=7.02e-15 PANW10=0
XXadd_sub#2ffa2#2fnand1/MMN0 N_ADD_SUB#2FFA2#2FC1_Xadd_sub#2ffa2#2fnand1/MMN0_d
+ N_ADD_SUB#2FFA2#2FS1_Xadd_sub#2ffa2#2fnand1/MMN0_g
+ XADD_SUB#2FFA2#2FNAND1/NET14 N_GND!_D0_noxref_pos NFET L=6.5e-08 W=6e-07
+ AD=1.98e-13 AS=7.05e-14 PD=1.86e-06 PS=8.35e-07 NRD=0.425 NRS=0.195833 M=1
+ NF=1 CNR_SWITCH=0 PCCRIT=0 PAR=1 PTWELL=0 SA=3.3e-07 SB=4.75e-07 SD=0 PANW1=0
+ PANW2=0 PANW3=0 PANW4=0 PANW5=0 PANW6=5.98e-15 PANW7=1.3e-14 PANW8=1.3e-14
+ PANW9=7.02e-15 PANW10=0
XXadd_sub#2ffa3#2fU1/MMN0 N_XADD_SUB#2FFA3#2FU1/NET19_Xadd_sub#2ffa3#2fU1/MMN0_d
+ N_ADD_SUB#2FC2_Xadd_sub#2ffa3#2fU1/MMN0_g N_GND!_Xadd_sub#2ffa3#2fU1/MMN2_s
+ N_GND!_D0_noxref_pos NFET L=6.5e-08 W=6e-07 AD=8.52e-14 AS=8.22e-14
+ PD=8.84e-07 PS=8.74e-07 NRD=0.248333 NRS=0.29 M=1 NF=1 CNR_SWITCH=0 PCCRIT=0
+ PAR=1 PTWELL=0 SA=1.8e-06 SB=5.24e-07 SD=0 PANW1=0 PANW2=0 PANW3=0 PANW4=0
+ PANW5=0 PANW6=5.98e-15 PANW7=1.3e-14 PANW8=1.3e-14 PANW9=7.02e-15 PANW10=0
XXadd_sub#2ffa2#2fnand1/MMN1 XADD_SUB#2FFA2#2FNAND1/NET14
+ N_ADD_SUB#2FC1_Xadd_sub#2ffa2#2fnand1/MMN1_g
+ N_GND!_Xadd_sub#2ffa2#2fnand1/MMN1_s N_GND!_D0_noxref_pos NFET L=6.5e-08
+ W=6e-07 AD=7.05e-14 AS=1.05e-13 PD=8.35e-07 PS=1.55e-06 NRD=0.195833
+ NRS=0.166667 M=1 NF=1 CNR_SWITCH=0 PCCRIT=0 PAR=1 PTWELL=0 SA=6.3e-07
+ SB=1.75e-07 SD=0 PANW1=0 PANW2=0 PANW3=0 PANW4=0 PANW5=0 PANW6=5.98e-15
+ PANW7=1.3e-14 PANW8=1.3e-14 PANW9=7.02e-15 PANW10=0
XXadd_sub#2ffa3#2fU1/MMN1 N_XADD_SUB#2FFA3#2FU1/NET19_Xadd_sub#2ffa3#2fU1/MMN0_d
+ N_ADD_SUB#2FFA3#2FS1_Xadd_sub#2ffa3#2fU1/MMN1_g
+ N_GND!_Xadd_sub#2ffa3#2fU1/MMN1_s N_GND!_D0_noxref_pos NFET L=6.5e-08 W=6e-07
+ AD=8.52e-14 AS=1.05e-13 PD=8.84e-07 PS=1.55e-06 NRD=0.225 NRS=0.166667 M=1
+ NF=1 CNR_SWITCH=0 PCCRIT=0 PAR=1 PTWELL=0 SA=2.149e-06 SB=1.75e-07 SD=0
+ PANW1=0 PANW2=0 PANW3=0 PANW4=0 PANW5=0 PANW6=5.98e-15 PANW7=1.3e-14
+ PANW8=1.3e-14 PANW9=7.02e-15 PANW10=0
XXadd_sub#2ffa1#2fnand3/MMN0 N_ADD_SUB#2FC1_Xadd_sub#2ffa1#2fnand3/MMN0_d
+ N_ADD_SUB#2FFA1#2FC1_Xadd_sub#2ffa1#2fnand3/MMN0_g
+ XADD_SUB#2FFA1#2FNAND3/NET14 N_GND!_D0_noxref_pos NFET L=6.5e-08 W=6e-07
+ AD=1.98e-13 AS=7.05e-14 PD=1.86e-06 PS=8.35e-07 NRD=0.425 NRS=0.195833 M=1
+ NF=1 CNR_SWITCH=0 PCCRIT=0 PAR=1 PTWELL=0 SA=3.3e-07 SB=4.75e-07 SD=0 PANW1=0
+ PANW2=0 PANW3=0 PANW4=0 PANW5=0 PANW6=5.98e-15 PANW7=1.3e-14 PANW8=1.3e-14
+ PANW9=7.02e-15 PANW10=0
XXadd_sub#2ffa0#2fU1/MMN4 XADD_SUB#2FFA0#2FU1/NET33
+ N_INST<0>_Xadd_sub#2ffa0#2fU1/MMN4_g N_GND!_Xadd_sub#2ffa0#2fU1/MMN4_s
+ N_GND!_D0_noxref_pos NFET L=6.5e-08 W=6e-07 AD=1.617e-13 AS=1.068e-13
+ PD=1.139e-06 PS=1.556e-06 NRD=0.449167 NRS=0.166667 M=1 NF=1 CNR_SWITCH=0
+ PCCRIT=0 PAR=1 PTWELL=0 SA=1.78e-07 SB=2.146e-06 SD=0 PANW1=0 PANW2=0 PANW3=0
+ PANW4=0 PANW5=0 PANW6=5.98e-15 PANW7=1.3e-14 PANW8=1.3e-14 PANW9=7.02e-15
+ PANW10=0
XXOUT_reg[3]/MMN5 N_XOUT_REG[3]/NET21_XOUT_reg[3]/MMN5_d
+ N_XOUT_REG[3]/NET24_XOUT_reg[3]/MMN5_g N_GND!_XOUT_reg[3]/MMN5_s
+ N_GND!_D0_noxref_pos NFET L=6.5e-08 W=6e-07 AD=1.41e-13 AS=7.56e-14
+ PD=1.67e-06 PS=8.52e-07 NRD=0.291667 NRS=0.166667 M=1 NF=1 CNR_SWITCH=0
+ PCCRIT=0 PAR=1 PTWELL=0 SA=2.35e-07 SB=3.355e-06 SD=0 PANW1=0 PANW2=0 PANW3=0
+ PANW4=0 PANW5=0 PANW6=5.98e-15 PANW7=1.3e-14 PANW8=1.3e-14 PANW9=7.02e-15
+ PANW10=0
XXadd_sub#2ffa1#2fnand3/MMN1 XADD_SUB#2FFA1#2FNAND3/NET14
+ N_ADD_SUB#2FFA1#2FC2_Xadd_sub#2ffa1#2fnand3/MMN1_g
+ N_GND!_Xadd_sub#2ffa1#2fnand3/MMN1_s N_GND!_D0_noxref_pos NFET L=6.5e-08
+ W=6e-07 AD=7.05e-14 AS=1.05e-13 PD=8.35e-07 PS=1.55e-06 NRD=0.195833
+ NRS=0.166667 M=1 NF=1 CNR_SWITCH=0 PCCRIT=0 PAR=1 PTWELL=0 SA=6.3e-07
+ SB=1.75e-07 SD=0 PANW1=0 PANW2=0 PANW3=0 PANW4=0 PANW5=0 PANW6=5.98e-15
+ PANW7=1.3e-14 PANW8=1.3e-14 PANW9=7.02e-15 PANW10=0
XXU3/MMN1 XU3/NET14 N_M12_XU3/MMN1_g N_GND!_XU3/MMN1_s N_GND!_D0_noxref_pos NFET
+ L=6.5e-08 W=6e-07 AD=7.05e-14 AS=1.05e-13 PD=8.35e-07 PS=1.55e-06 NRD=0.195833
+ NRS=0.166667 M=1 NF=1 CNR_SWITCH=0 PCCRIT=0 PAR=1 PTWELL=0 SA=1.75e-07
+ SB=6.3e-07 SD=0 PANW1=0 PANW2=0 PANW3=0 PANW4=0 PANW5=0 PANW6=5.98e-15
+ PANW7=1.3e-14 PANW8=1.3e-14 PANW9=7.02e-15 PANW10=0
XXOUT_reg[3]/MMN3 XOUT_REG[3]/NET71 N_XOUT_REG[3]/NET21_XOUT_reg[3]/MMN3_g
+ N_GND!_XOUT_reg[3]/MMN5_s N_GND!_D0_noxref_pos NFET L=6.5e-08 W=6e-07
+ AD=5.7e-14 AS=7.56e-14 PD=7.9e-07 PS=8.52e-07 NRD=0.158333 NRS=0.253333 M=1
+ NF=1 CNR_SWITCH=0 PCCRIT=0 PAR=1 PTWELL=0 SA=5.52e-07 SB=3.038e-06 SD=0
+ PANW1=0 PANW2=0 PANW3=0 PANW4=0 PANW5=0 PANW6=5.98e-15 PANW7=1.3e-14
+ PANW8=1.3e-14 PANW9=7.02e-15 PANW10=0
XXU3/MMN0 N_N85_XU3/MMN0_d N_M11_XU3/MMN0_g XU3/NET14 N_GND!_D0_noxref_pos NFET
+ L=6.5e-08 W=6e-07 AD=1.98e-13 AS=7.05e-14 PD=1.86e-06 PS=8.35e-07 NRD=0.425
+ NRS=0.195833 M=1 NF=1 CNR_SWITCH=0 PCCRIT=0 PAR=1 PTWELL=0 SA=4.75e-07
+ SB=3.3e-07 SD=0 PANW1=0 PANW2=0 PANW3=0 PANW4=0 PANW5=0 PANW6=5.98e-15
+ PANW7=1.3e-14 PANW8=1.3e-14 PANW9=7.02e-15 PANW10=0
XXadd_sub#2ffa0#2fU1/MMN3 N_SUM<0>_Xadd_sub#2ffa0#2fU1/MMN3_d
+ N_ADD_SUB#2FFA0#2FS1_Xadd_sub#2ffa0#2fU1/MMN3_g XADD_SUB#2FFA0#2FU1/NET33
+ N_GND!_D0_noxref_pos NFET L=6.5e-08 W=6e-07 AD=1.842e-13 AS=1.617e-13
+ PD=1.214e-06 PS=1.139e-06 NRD=0.753333 NRS=0.449167 M=1 NF=1 CNR_SWITCH=0
+ PCCRIT=0 PAR=1 PTWELL=0 SA=7.82e-07 SB=1.542e-06 SD=0 PANW1=0 PANW2=0 PANW3=0
+ PANW4=0 PANW5=0 PANW6=5.98e-15 PANW7=1.3e-14 PANW8=1.3e-14 PANW9=7.02e-15
+ PANW10=0
XXOUT_reg[3]/MMN4 N_XOUT_REG[3]/NET24_XOUT_reg[3]/MMN4_d
+ N_CLK_XOUT_reg[3]/MMN4_g XOUT_REG[3]/NET71 N_GND!_D0_noxref_pos NFET L=6.5e-08
+ W=6e-07 AD=6e-14 AS=5.7e-14 PD=8e-07 PS=7.9e-07 NRD=0.166667 NRS=0.158333 M=1
+ NF=1 CNR_SWITCH=0 PCCRIT=0 PAR=1 PTWELL=0 SA=8.07e-07 SB=2.783e-06 SD=0
+ PANW1=0 PANW2=0 PANW3=0 PANW4=0 PANW5=0 PANW6=5.98e-15 PANW7=1.3e-14
+ PANW8=1.3e-14 PANW9=7.02e-15 PANW10=0
XXadd_sub#2ffa2#2fU1/MMN4 XADD_SUB#2FFA2#2FU1/NET33
+ N_ADD_SUB#2FC1_Xadd_sub#2ffa2#2fU1/MMN4_g N_GND!_Xadd_sub#2ffa2#2fU1/MMN4_s
+ N_GND!_D0_noxref_pos NFET L=6.5e-08 W=6e-07 AD=1.617e-13 AS=1.068e-13
+ PD=1.139e-06 PS=1.556e-06 NRD=0.449167 NRS=0.166667 M=1 NF=1 CNR_SWITCH=0
+ PCCRIT=0 PAR=1 PTWELL=0 SA=1.78e-07 SB=2.146e-06 SD=0 PANW1=0 PANW2=0 PANW3=0
+ PANW4=0 PANW5=0 PANW6=5.98e-15 PANW7=1.3e-14 PANW8=1.3e-14 PANW9=7.02e-15
+ PANW10=0
XXOUT_reg[3]/MMN1 N_XOUT_REG[3]/NET24_XOUT_reg[3]/MMN4_d
+ N_XOUT_REG[3]/NET23_XOUT_reg[3]/MMN1_g XOUT_REG[3]/NET70 N_GND!_D0_noxref_pos
+ NFET L=6.5e-08 W=6e-07 AD=6e-14 AS=9.39e-14 PD=8e-07 PS=9.13e-07 NRD=0.166667
+ NRS=0.260833 M=1 NF=1 CNR_SWITCH=0 PCCRIT=0 PAR=1 PTWELL=0 SA=1.072e-06
+ SB=2.518e-06 SD=0 PANW1=0 PANW2=0 PANW3=0 PANW4=0 PANW5=0 PANW6=5.98e-15
+ PANW7=1.3e-14 PANW8=1.3e-14 PANW9=7.02e-15 PANW10=0
XXadd_sub#2ffa1#2fU1/MMN4 XADD_SUB#2FFA1#2FU1/NET33
+ N_ADD_SUB#2FC0_Xadd_sub#2ffa1#2fU1/MMN4_g N_GND!_Xadd_sub#2ffa1#2fU1/MMN4_s
+ N_GND!_D0_noxref_pos NFET L=6.5e-08 W=6e-07 AD=1.617e-13 AS=1.068e-13
+ PD=1.139e-06 PS=1.556e-06 NRD=0.449167 NRS=0.166667 M=1 NF=1 CNR_SWITCH=0
+ PCCRIT=0 PAR=1 PTWELL=0 SA=1.78e-07 SB=2.146e-06 SD=0 PANW1=0 PANW2=0 PANW3=0
+ PANW4=0 PANW5=0 PANW6=5.98e-15 PANW7=1.3e-14 PANW8=1.3e-14 PANW9=7.02e-15
+ PANW10=0
XXadd_sub#2ffa0#2fU1/MMN2 N_SUM<0>_Xadd_sub#2ffa0#2fU1/MMN3_d
+ N_XADD_SUB#2FFA0#2FU1/NET19_Xadd_sub#2ffa0#2fU1/MMN2_g
+ N_GND!_Xadd_sub#2ffa0#2fU1/MMN2_s N_GND!_D0_noxref_pos NFET L=6.5e-08 W=6e-07
+ AD=1.842e-13 AS=8.22e-14 PD=1.214e-06 PS=8.74e-07 NRD=0.27 NRS=0.166667 M=1
+ NF=1 CNR_SWITCH=0 PCCRIT=0 PAR=1 PTWELL=0 SA=1.461e-06 SB=8.63e-07 SD=0
+ PANW1=0 PANW2=0 PANW3=0 PANW4=0 PANW5=0 PANW6=5.98e-15 PANW7=1.3e-14
+ PANW8=1.3e-14 PANW9=7.02e-15 PANW10=0
XXOUT_reg[3]/MMN2 XOUT_REG[3]/NET70 N_N85_XOUT_reg[3]/MMN2_g
+ N_GND!_XOUT_reg[3]/MMN2_s N_GND!_D0_noxref_pos NFET L=6.5e-08 W=6e-07
+ AD=9.39e-14 AS=9.9e-14 PD=9.13e-07 PS=9.3e-07 NRD=0.260833 NRS=0.26 M=1 NF=1
+ CNR_SWITCH=0 PCCRIT=0 PAR=1 PTWELL=0 SA=1.45e-06 SB=2.14e-06 SD=0 PANW1=0
+ PANW2=0 PANW3=0 PANW4=0 PANW5=0 PANW6=5.98e-15 PANW7=1.3e-14 PANW8=1.3e-14
+ PANW9=7.02e-15 PANW10=0
XXadd_sub#2ffa1#2fU2/MMN1 N_XADD_SUB#2FFA1#2FU2/NET19_Xadd_sub#2ffa1#2fU2/MMN1_d
+ N_OUT<1>_Xadd_sub#2ffa1#2fU2/MMN1_g N_GND!_Xadd_sub#2ffa1#2fU2/MMN1_s
+ N_GND!_D0_noxref_pos NFET L=6.5e-08 W=6e-07 AD=8.52e-14 AS=1.05e-13
+ PD=8.84e-07 PS=1.55e-06 NRD=0.225 NRS=0.166667 M=1 NF=1 CNR_SWITCH=0 PCCRIT=0
+ PAR=1 PTWELL=0 SA=1.75e-07 SB=2.149e-06 SD=0 PANW1=0 PANW2=0 PANW3=0 PANW4=0
+ PANW5=0 PANW6=5.98e-15 PANW7=1.3e-14 PANW8=1.3e-14 PANW9=7.02e-15 PANW10=0
XXadd_sub#2ffa2#2fU1/MMN3 N_SUM<2>_Xadd_sub#2ffa2#2fU1/MMN3_d
+ N_ADD_SUB#2FFA2#2FS1_Xadd_sub#2ffa2#2fU1/MMN3_g XADD_SUB#2FFA2#2FU1/NET33
+ N_GND!_D0_noxref_pos NFET L=6.5e-08 W=6e-07 AD=1.842e-13 AS=1.617e-13
+ PD=1.214e-06 PS=1.139e-06 NRD=0.753333 NRS=0.449167 M=1 NF=1 CNR_SWITCH=0
+ PCCRIT=0 PAR=1 PTWELL=0 SA=7.82e-07 SB=1.542e-06 SD=0 PANW1=0 PANW2=0 PANW3=0
+ PANW4=0 PANW5=0 PANW6=5.98e-15 PANW7=1.3e-14 PANW8=1.3e-14 PANW9=7.02e-15
+ PANW10=0
XXadd_sub#2ffa0#2fU1/MMN0 N_XADD_SUB#2FFA0#2FU1/NET19_Xadd_sub#2ffa0#2fU1/MMN0_d
+ N_INST<0>_Xadd_sub#2ffa0#2fU1/MMN0_g N_GND!_Xadd_sub#2ffa0#2fU1/MMN2_s
+ N_GND!_D0_noxref_pos NFET L=6.5e-08 W=6e-07 AD=8.52e-14 AS=8.22e-14
+ PD=8.84e-07 PS=8.74e-07 NRD=0.248333 NRS=0.29 M=1 NF=1 CNR_SWITCH=0 PCCRIT=0
+ PAR=1 PTWELL=0 SA=1.8e-06 SB=5.24e-07 SD=0 PANW1=0 PANW2=0 PANW3=0 PANW4=0
+ PANW5=0 PANW6=5.98e-15 PANW7=1.3e-14 PANW8=1.3e-14 PANW9=7.02e-15 PANW10=0
XXadd_sub#2ffa1#2fU1/MMN3 N_SUM<1>_Xadd_sub#2ffa1#2fU1/MMN3_d
+ N_ADD_SUB#2FFA1#2FS1_Xadd_sub#2ffa1#2fU1/MMN3_g XADD_SUB#2FFA1#2FU1/NET33
+ N_GND!_D0_noxref_pos NFET L=6.5e-08 W=6e-07 AD=1.842e-13 AS=1.617e-13
+ PD=1.214e-06 PS=1.139e-06 NRD=0.753333 NRS=0.449167 M=1 NF=1 CNR_SWITCH=0
+ PCCRIT=0 PAR=1 PTWELL=0 SA=7.82e-07 SB=1.542e-06 SD=0 PANW1=0 PANW2=0 PANW3=0
+ PANW4=0 PANW5=0 PANW6=5.98e-15 PANW7=1.3e-14 PANW8=1.3e-14 PANW9=7.02e-15
+ PANW10=0
XXadd_sub#2ffa1#2fU2/MMN0 N_XADD_SUB#2FFA1#2FU2/NET19_Xadd_sub#2ffa1#2fU2/MMN1_d
+ N_ADD_SUB#2FW1<1>_Xadd_sub#2ffa1#2fU2/MMN0_g N_GND!_Xadd_sub#2ffa1#2fU2/MMN0_s
+ N_GND!_D0_noxref_pos NFET L=6.5e-08 W=6e-07 AD=8.52e-14 AS=8.22e-14
+ PD=8.84e-07 PS=8.74e-07 NRD=0.248333 NRS=0.29 M=1 NF=1 CNR_SWITCH=0 PCCRIT=0
+ PAR=1 PTWELL=0 SA=5.24e-07 SB=1.8e-06 SD=0 PANW1=0 PANW2=0 PANW3=0 PANW4=0
+ PANW5=0 PANW6=5.98e-15 PANW7=1.3e-14 PANW8=1.3e-14 PANW9=7.02e-15 PANW10=0
XXOUT_reg[3]/MMN7 XOUT_REG[3]/NET72 N_XOUT_REG[3]/NET21_XOUT_reg[3]/MMN7_g
+ N_GND!_XOUT_reg[3]/MMN2_s N_GND!_D0_noxref_pos NFET L=6.5e-08 W=6e-07
+ AD=5.76e-14 AS=9.9e-14 PD=7.92e-07 PS=9.3e-07 NRD=0.16 NRS=0.29 M=1 NF=1
+ CNR_SWITCH=0 PCCRIT=0 PAR=1 PTWELL=0 SA=1.845e-06 SB=1.745e-06 SD=0 PANW1=0
+ PANW2=0 PANW3=0 PANW4=0 PANW5=0 PANW6=5.98e-15 PANW7=1.3e-14 PANW8=1.3e-14
+ PANW9=7.02e-15 PANW10=0
XXadd_sub#2ffa0#2fU1/MMN1 N_XADD_SUB#2FFA0#2FU1/NET19_Xadd_sub#2ffa0#2fU1/MMN0_d
+ N_ADD_SUB#2FFA0#2FS1_Xadd_sub#2ffa0#2fU1/MMN1_g
+ N_GND!_Xadd_sub#2ffa0#2fU1/MMN1_s N_GND!_D0_noxref_pos NFET L=6.5e-08 W=6e-07
+ AD=8.52e-14 AS=1.05e-13 PD=8.84e-07 PS=1.55e-06 NRD=0.225 NRS=0.166667 M=1
+ NF=1 CNR_SWITCH=0 PCCRIT=0 PAR=1 PTWELL=0 SA=2.149e-06 SB=1.75e-07 SD=0
+ PANW1=0 PANW2=0 PANW3=0 PANW4=0 PANW5=0 PANW6=5.98e-15 PANW7=1.3e-14
+ PANW8=1.3e-14 PANW9=7.02e-15 PANW10=0
XXOUT_reg[3]/MMN9 N_XOUT_REG[3]/NET42_XOUT_reg[3]/MMN9_d
+ N_CLK_XOUT_reg[3]/MMN9_g XOUT_REG[3]/NET72 N_GND!_D0_noxref_pos NFET L=6.5e-08
+ W=6e-07 AD=1.539e-13 AS=5.76e-14 PD=1.113e-06 PS=7.92e-07 NRD=0.646667
+ NRS=0.16 M=1 NF=1 CNR_SWITCH=2 PCCRIT=0 PAR=1 PTWELL=0 SA=2.102e-06
+ SB=1.488e-06 SD=0 PANW1=0 PANW2=0 PANW3=0 PANW4=0 PANW5=0 PANW6=5.98e-15
+ PANW7=1.3e-14 PANW8=1.3e-14 PANW9=7.02e-15 PANW10=0
XXadd_sub#2ffa1#2fU2/MMN2 N_ADD_SUB#2FFA1#2FS1_Xadd_sub#2ffa1#2fU2/MMN2_d
+ N_XADD_SUB#2FFA1#2FU2/NET19_Xadd_sub#2ffa1#2fU2/MMN2_g
+ N_GND!_Xadd_sub#2ffa1#2fU2/MMN0_s N_GND!_D0_noxref_pos NFET L=6.5e-08 W=6e-07
+ AD=1.842e-13 AS=8.22e-14 PD=1.214e-06 PS=8.74e-07 NRD=0.27 NRS=0.166667 M=1
+ NF=1 CNR_SWITCH=0 PCCRIT=0 PAR=1 PTWELL=0 SA=8.63e-07 SB=1.461e-06 SD=0
+ PANW1=0 PANW2=0 PANW3=0 PANW4=0 PANW5=0 PANW6=5.98e-15 PANW7=1.3e-14
+ PANW8=1.3e-14 PANW9=7.02e-15 PANW10=0
XXadd_sub#2ffa2#2fU1/MMN2 N_SUM<2>_Xadd_sub#2ffa2#2fU1/MMN3_d
+ N_XADD_SUB#2FFA2#2FU1/NET19_Xadd_sub#2ffa2#2fU1/MMN2_g
+ N_GND!_Xadd_sub#2ffa2#2fU1/MMN2_s N_GND!_D0_noxref_pos NFET L=6.5e-08 W=6e-07
+ AD=1.842e-13 AS=8.22e-14 PD=1.214e-06 PS=8.74e-07 NRD=0.27 NRS=0.166667 M=1
+ NF=1 CNR_SWITCH=0 PCCRIT=0 PAR=1 PTWELL=0 SA=1.461e-06 SB=8.63e-07 SD=0
+ PANW1=0 PANW2=0 PANW3=0 PANW4=0 PANW5=0 PANW6=5.98e-15 PANW7=1.3e-14
+ PANW8=1.3e-14 PANW9=7.02e-15 PANW10=0
XXadd_sub#2ffa1#2fU1/MMN2 N_SUM<1>_Xadd_sub#2ffa1#2fU1/MMN3_d
+ N_XADD_SUB#2FFA1#2FU1/NET19_Xadd_sub#2ffa1#2fU1/MMN2_g
+ N_GND!_Xadd_sub#2ffa1#2fU1/MMN2_s N_GND!_D0_noxref_pos NFET L=6.5e-08 W=6e-07
+ AD=1.842e-13 AS=8.22e-14 PD=1.214e-06 PS=8.74e-07 NRD=0.27 NRS=0.166667 M=1
+ NF=1 CNR_SWITCH=0 PCCRIT=0 PAR=1 PTWELL=0 SA=1.461e-06 SB=8.63e-07 SD=0
+ PANW1=0 PANW2=0 PANW3=0 PANW4=0 PANW5=0 PANW6=5.98e-15 PANW7=1.3e-14
+ PANW8=1.3e-14 PANW9=7.02e-15 PANW10=0
XXadd_sub#2ffa2#2fU1/MMN0 N_XADD_SUB#2FFA2#2FU1/NET19_Xadd_sub#2ffa2#2fU1/MMN0_d
+ N_ADD_SUB#2FC1_Xadd_sub#2ffa2#2fU1/MMN0_g N_GND!_Xadd_sub#2ffa2#2fU1/MMN2_s
+ N_GND!_D0_noxref_pos NFET L=6.5e-08 W=6e-07 AD=8.52e-14 AS=8.22e-14
+ PD=8.84e-07 PS=8.74e-07 NRD=0.248333 NRS=0.29 M=1 NF=1 CNR_SWITCH=0 PCCRIT=0
+ PAR=1 PTWELL=0 SA=1.8e-06 SB=5.24e-07 SD=0 PANW1=0 PANW2=0 PANW3=0 PANW4=0
+ PANW5=0 PANW6=5.98e-15 PANW7=1.3e-14 PANW8=1.3e-14 PANW9=7.02e-15 PANW10=0
XXOUT_reg[3]/MMN6 N_XOUT_REG[3]/NET42_XOUT_reg[3]/MMN9_d
+ N_XOUT_REG[3]/NET23_XOUT_reg[3]/MMN6_g XOUT_REG[3]/NET73 N_GND!_D0_noxref_pos
+ NFET L=6.5e-08 W=6e-07 AD=1.539e-13 AS=4.86e-14 PD=1.113e-06 PS=7.62e-07
+ NRD=0.208333 NRS=0.135 M=1 NF=1 CNR_SWITCH=0 PCCRIT=0 PAR=1 PTWELL=0
+ SA=2.68e-06 SB=9.1e-07 SD=0 PANW1=0 PANW2=0 PANW3=0 PANW4=0 PANW5=0
+ PANW6=5.98e-15 PANW7=1.3e-14 PANW8=1.3e-14 PANW9=7.02e-15 PANW10=0
XXadd_sub#2ffa1#2fU1/MMN0 N_XADD_SUB#2FFA1#2FU1/NET19_Xadd_sub#2ffa1#2fU1/MMN0_d
+ N_ADD_SUB#2FC0_Xadd_sub#2ffa1#2fU1/MMN0_g N_GND!_Xadd_sub#2ffa1#2fU1/MMN2_s
+ N_GND!_D0_noxref_pos NFET L=6.5e-08 W=6e-07 AD=8.52e-14 AS=8.22e-14
+ PD=8.84e-07 PS=8.74e-07 NRD=0.248333 NRS=0.29 M=1 NF=1 CNR_SWITCH=0 PCCRIT=0
+ PAR=1 PTWELL=0 SA=1.8e-06 SB=5.24e-07 SD=0 PANW1=0 PANW2=0 PANW3=0 PANW4=0
+ PANW5=0 PANW6=5.98e-15 PANW7=1.3e-14 PANW8=1.3e-14 PANW9=7.02e-15 PANW10=0
XXadd_sub#2ffa1#2fU2/MMN3 N_ADD_SUB#2FFA1#2FS1_Xadd_sub#2ffa1#2fU2/MMN2_d
+ N_OUT<1>_Xadd_sub#2ffa1#2fU2/MMN3_g XADD_SUB#2FFA1#2FU2/NET33
+ N_GND!_D0_noxref_pos NFET L=6.5e-08 W=6e-07 AD=1.842e-13 AS=1.617e-13
+ PD=1.214e-06 PS=1.139e-06 NRD=0.753333 NRS=0.449167 M=1 NF=1 CNR_SWITCH=0
+ PCCRIT=0 PAR=1 PTWELL=0 SA=1.542e-06 SB=7.82e-07 SD=0 PANW1=0 PANW2=0 PANW3=0
+ PANW4=0 PANW5=0 PANW6=5.98e-15 PANW7=1.3e-14 PANW8=1.3e-14 PANW9=7.02e-15
+ PANW10=0
XXadd_sub#2ffa2#2fU1/MMN1 N_XADD_SUB#2FFA2#2FU1/NET19_Xadd_sub#2ffa2#2fU1/MMN0_d
+ N_ADD_SUB#2FFA2#2FS1_Xadd_sub#2ffa2#2fU1/MMN1_g
+ N_GND!_Xadd_sub#2ffa2#2fU1/MMN1_s N_GND!_D0_noxref_pos NFET L=6.5e-08 W=6e-07
+ AD=8.52e-14 AS=1.05e-13 PD=8.84e-07 PS=1.55e-06 NRD=0.225 NRS=0.166667 M=1
+ NF=1 CNR_SWITCH=0 PCCRIT=0 PAR=1 PTWELL=0 SA=2.149e-06 SB=1.75e-07 SD=0
+ PANW1=0 PANW2=0 PANW3=0 PANW4=0 PANW5=0 PANW6=5.98e-15 PANW7=1.3e-14
+ PANW8=1.3e-14 PANW9=7.02e-15 PANW10=0
XXOUT_reg[3]/MMN8 XOUT_REG[3]/NET73 N_XOUT_REG[3]/NET51_XOUT_reg[3]/MMN8_g
+ N_GND!_XOUT_reg[3]/MMN8_s N_GND!_D0_noxref_pos NFET L=6.5e-08 W=6e-07
+ AD=4.86e-14 AS=1.089e-13 PD=7.62e-07 PS=9.63e-07 NRD=0.135 NRS=0.438333 M=1
+ NF=1 CNR_SWITCH=0 PCCRIT=0 PAR=1 PTWELL=0 SA=2.907e-06 SB=6.83e-07 SD=0
+ PANW1=0 PANW2=0 PANW3=0 PANW4=0 PANW5=0 PANW6=5.98e-15 PANW7=1.3e-14
+ PANW8=1.3e-14 PANW9=7.02e-15 PANW10=0
XXU25/MMN1 XU25/NET14 N_M13_XU25/MMN1_g N_GND!_XU25/MMN1_s N_GND!_D0_noxref_pos
+ NFET L=6.5e-08 W=6e-07 AD=7.05e-14 AS=1.05e-13 PD=8.35e-07 PS=1.55e-06
+ NRD=0.195833 NRS=0.166667 M=1 NF=1 CNR_SWITCH=0 PCCRIT=0 PAR=1 PTWELL=0
+ SA=1.75e-07 SB=6.3e-07 SD=0 PANW1=0 PANW2=0 PANW3=0 PANW4=0 PANW5=0
+ PANW6=5.98e-15 PANW7=1.3e-14 PANW8=1.3e-14 PANW9=7.02e-15 PANW10=0
XXadd_sub#2ffa1#2fU1/MMN1 N_XADD_SUB#2FFA1#2FU1/NET19_Xadd_sub#2ffa1#2fU1/MMN0_d
+ N_ADD_SUB#2FFA1#2FS1_Xadd_sub#2ffa1#2fU1/MMN1_g
+ N_GND!_Xadd_sub#2ffa1#2fU1/MMN1_s N_GND!_D0_noxref_pos NFET L=6.5e-08 W=6e-07
+ AD=8.52e-14 AS=1.05e-13 PD=8.84e-07 PS=1.55e-06 NRD=0.225 NRS=0.166667 M=1
+ NF=1 CNR_SWITCH=0 PCCRIT=0 PAR=1 PTWELL=0 SA=2.149e-06 SB=1.75e-07 SD=0
+ PANW1=0 PANW2=0 PANW3=0 PANW4=0 PANW5=0 PANW6=5.98e-15 PANW7=1.3e-14
+ PANW8=1.3e-14 PANW9=7.02e-15 PANW10=0
XXU25/MMN0 N_M36_XU25/MMN0_d N_SUM<0>_XU25/MMN0_g XU25/NET14
+ N_GND!_D0_noxref_pos NFET L=6.5e-08 W=6e-07 AD=1.98e-13 AS=7.05e-14
+ PD=1.86e-06 PS=8.35e-07 NRD=0.425 NRS=0.195833 M=1 NF=1 CNR_SWITCH=0 PCCRIT=0
+ PAR=1 PTWELL=0 SA=4.75e-07 SB=3.3e-07 SD=0 PANW1=0 PANW2=0 PANW3=0 PANW4=0
+ PANW5=0 PANW6=5.98e-15 PANW7=1.3e-14 PANW8=1.3e-14 PANW9=7.02e-15 PANW10=0
XXOUT_reg[3]/MMN10 N_XOUT_REG[3]/NET51_XOUT_reg[3]/MMN10_d
+ N_XOUT_REG[3]/NET42_XOUT_reg[3]/MMN10_g N_GND!_XOUT_reg[3]/MMN8_s
+ N_GND!_D0_noxref_pos NFET L=6.5e-08 W=6e-07 AD=1.53e-13 AS=1.089e-13
+ PD=1.71e-06 PS=9.63e-07 NRD=0.325 NRS=0.166667 M=1 NF=1 CNR_SWITCH=1 PCCRIT=0
+ PAR=1 PTWELL=0 SA=3.335e-06 SB=2.55e-07 SD=0 PANW1=0 PANW2=0 PANW3=0 PANW4=0
+ PANW5=0 PANW6=5.98e-15 PANW7=1.3e-14 PANW8=1.3e-14 PANW9=7.02e-15 PANW10=0
XXadd_sub#2ffa1#2fU2/MMN4 XADD_SUB#2FFA1#2FU2/NET33
+ N_ADD_SUB#2FW1<1>_Xadd_sub#2ffa1#2fU2/MMN4_g N_GND!_Xadd_sub#2ffa1#2fU2/MMN4_s
+ N_GND!_D0_noxref_pos NFET L=6.5e-08 W=6e-07 AD=1.617e-13 AS=1.068e-13
+ PD=1.139e-06 PS=1.556e-06 NRD=0.449167 NRS=0.166667 M=1 NF=1 CNR_SWITCH=0
+ PCCRIT=0 PAR=1 PTWELL=0 SA=2.146e-06 SB=1.78e-07 SD=0 PANW1=0 PANW2=0 PANW3=0
+ PANW4=0 PANW5=0 PANW6=5.98e-15 PANW7=1.3e-14 PANW8=1.3e-14 PANW9=7.02e-15
+ PANW10=0
XXOUT_reg[3]/MMN11 N_OUT<3>_XOUT_reg[3]/MMN11_d
+ N_XOUT_REG[3]/NET42_XOUT_reg[3]/MMN11_g N_GND!_XOUT_reg[3]/MMN11_s
+ N_GND!_D0_noxref_pos NFET L=6.5e-08 W=6e-07 AD=1.842e-13 AS=8.82e-14
+ PD=1.814e-06 PS=8.94e-07 NRD=0.411667 NRS=0.2 M=1 NF=1 CNR_SWITCH=1 PCCRIT=0
+ PAR=1 PTWELL=0 SA=3.07e-07 SB=6.1e-07 SD=0 PANW1=0 PANW2=0 PANW3=0 PANW4=0
+ PANW5=0 PANW6=5.98e-15 PANW7=1.3e-14 PANW8=1.3e-14 PANW9=7.02e-15 PANW10=0
XXOUT_reg[3]/MMN0 N_XOUT_REG[3]/NET23_XOUT_reg[3]/MMN0_d
+ N_CLK_XOUT_reg[3]/MMN0_g N_GND!_XOUT_reg[3]/MMN11_s N_GND!_D0_noxref_pos NFET
+ L=6.5e-08 W=6e-07 AD=1.506e-13 AS=8.82e-14 PD=1.702e-06 PS=8.94e-07
+ NRD=0.318333 NRS=0.29 M=1 NF=1 CNR_SWITCH=0 PCCRIT=0 PAR=1 PTWELL=0
+ SA=6.66e-07 SB=2.51e-07 SD=0 PANW1=0 PANW2=0 PANW3=0 PANW4=0 PANW5=0
+ PANW6=5.98e-15 PANW7=1.3e-14 PANW8=1.3e-14 PANW9=7.02e-15 PANW10=0
XXU23/MMN6 XU23/NET27 N_M13_XU23/MMN6_g N_GND!_XU23/MMN6_s N_GND!_D0_noxref_pos
+ NFET L=6.5e-08 W=6e-07 AD=1.605e-13 AS=1.05e-13 PD=1.135e-06 PS=1.55e-06
+ NRD=0.445833 NRS=0.166667 M=1 NF=1 CNR_SWITCH=0 PCCRIT=0 PAR=1 PTWELL=0
+ SA=1.75e-07 SB=1.848e-06 SD=0 PANW1=0 PANW2=0 PANW3=0 PANW4=0 PANW5=0
+ PANW6=5.98e-15 PANW7=1.3e-14 PANW8=1.3e-14 PANW9=7.02e-15 PANW10=0
XXU23/MMN7 N_M27_XU23/MMN7_d N_SUM<1>_XU23/MMN7_g XU23/NET27
+ N_GND!_D0_noxref_pos NFET L=6.5e-08 W=6e-07 AD=1.608e-13 AS=1.605e-13
+ PD=1.136e-06 PS=1.135e-06 NRD=0.57 NRS=0.445833 M=1 NF=1 CNR_SWITCH=0 PCCRIT=0
+ PAR=1 PTWELL=0 SA=7.75e-07 SB=1.248e-06 SD=0 PANW1=0 PANW2=0 PANW3=0 PANW4=0
+ PANW5=0 PANW6=5.98e-15 PANW7=1.3e-14 PANW8=1.3e-14 PANW9=7.02e-15 PANW10=0
XXU23/MMN0 N_M27_XU23/MMN7_d N_M16_XU23/MMN0_g XU23/NET26 N_GND!_D0_noxref_pos
+ NFET L=6.5e-08 W=6e-07 AD=1.608e-13 AS=1.212e-13 PD=1.136e-06 PS=1.004e-06
+ NRD=0.323333 NRS=0.336667 M=1 NF=1 CNR_SWITCH=0 PCCRIT=0 PAR=1 PTWELL=0
+ SA=1.376e-06 SB=6.47e-07 SD=0 PANW1=0 PANW2=0 PANW3=0 PANW4=0 PANW5=0
+ PANW6=5.98e-15 PANW7=1.3e-14 PANW8=1.3e-14 PANW9=7.02e-15 PANW10=0
XXU23/MMN1 XU23/NET26 N_N76_XU23/MMN1_g N_GND!_XU23/MMN1_s N_GND!_D0_noxref_pos
+ NFET L=6.5e-08 W=6e-07 AD=1.212e-13 AS=1.068e-13 PD=1.004e-06 PS=1.556e-06
+ NRD=0.336667 NRS=0.166667 M=1 NF=1 CNR_SWITCH=0 PCCRIT=0 PAR=1 PTWELL=0
+ SA=1.845e-06 SB=1.78e-07 SD=0 PANW1=0 PANW2=0 PANW3=0 PANW4=0 PANW5=0
+ PANW6=5.98e-15 PANW7=1.3e-14 PANW8=1.3e-14 PANW9=7.02e-15 PANW10=0
XXadd_sub#2ffa2#2fU2/MMN1 N_XADD_SUB#2FFA2#2FU2/NET19_Xadd_sub#2ffa2#2fU2/MMN1_d
+ N_OUT<2>_Xadd_sub#2ffa2#2fU2/MMN1_g N_GND!_Xadd_sub#2ffa2#2fU2/MMN1_s
+ N_GND!_D0_noxref_pos NFET L=6.5e-08 W=6e-07 AD=8.52e-14 AS=1.05e-13
+ PD=8.84e-07 PS=1.55e-06 NRD=0.225 NRS=0.166667 M=1 NF=1 CNR_SWITCH=0 PCCRIT=0
+ PAR=1 PTWELL=0 SA=1.75e-07 SB=2.149e-06 SD=0 PANW1=0 PANW2=0 PANW3=0 PANW4=0
+ PANW5=0 PANW6=5.98e-15 PANW7=1.3e-14 PANW8=1.3e-14 PANW9=7.02e-15 PANW10=0
XXadd_sub#2ffa0#2fU2/MMN1 N_XADD_SUB#2FFA0#2FU2/NET19_Xadd_sub#2ffa0#2fU2/MMN1_d
+ N_OUT<0>_Xadd_sub#2ffa0#2fU2/MMN1_g N_GND!_Xadd_sub#2ffa0#2fU2/MMN1_s
+ N_GND!_D0_noxref_pos NFET L=6.5e-08 W=6e-07 AD=8.52e-14 AS=1.05e-13
+ PD=8.84e-07 PS=1.55e-06 NRD=0.225 NRS=0.166667 M=1 NF=1 CNR_SWITCH=0 PCCRIT=0
+ PAR=1 PTWELL=0 SA=1.75e-07 SB=2.149e-06 SD=0 PANW1=0 PANW2=0 PANW3=0 PANW4=0
+ PANW5=0 PANW6=5.98e-15 PANW7=1.3e-14 PANW8=1.3e-14 PANW9=7.02e-15 PANW10=0
XXadd_sub#2ffa2#2fU2/MMN0 N_XADD_SUB#2FFA2#2FU2/NET19_Xadd_sub#2ffa2#2fU2/MMN1_d
+ N_ADD_SUB#2FW1<2>_Xadd_sub#2ffa2#2fU2/MMN0_g N_GND!_Xadd_sub#2ffa2#2fU2/MMN0_s
+ N_GND!_D0_noxref_pos NFET L=6.5e-08 W=6e-07 AD=8.52e-14 AS=8.22e-14
+ PD=8.84e-07 PS=8.74e-07 NRD=0.248333 NRS=0.29 M=1 NF=1 CNR_SWITCH=0 PCCRIT=0
+ PAR=1 PTWELL=0 SA=5.24e-07 SB=1.8e-06 SD=0 PANW1=0 PANW2=0 PANW3=0 PANW4=0
+ PANW5=0 PANW6=5.98e-15 PANW7=1.3e-14 PANW8=1.3e-14 PANW9=7.02e-15 PANW10=0
XXadd_sub#2ffa0#2fU2/MMN0 N_XADD_SUB#2FFA0#2FU2/NET19_Xadd_sub#2ffa0#2fU2/MMN1_d
+ N_ADD_SUB#2FW1<0>_Xadd_sub#2ffa0#2fU2/MMN0_g N_GND!_Xadd_sub#2ffa0#2fU2/MMN0_s
+ N_GND!_D0_noxref_pos NFET L=6.5e-08 W=6e-07 AD=8.52e-14 AS=8.22e-14
+ PD=8.84e-07 PS=8.74e-07 NRD=0.248333 NRS=0.29 M=1 NF=1 CNR_SWITCH=0 PCCRIT=0
+ PAR=1 PTWELL=0 SA=5.24e-07 SB=1.8e-06 SD=0 PANW1=0 PANW2=0 PANW3=0 PANW4=0
+ PANW5=0 PANW6=5.98e-15 PANW7=1.3e-14 PANW8=1.3e-14 PANW9=7.02e-15 PANW10=0
XXadd_sub#2ffa2#2fU2/MMN2 N_ADD_SUB#2FFA2#2FS1_Xadd_sub#2ffa2#2fU2/MMN2_d
+ N_XADD_SUB#2FFA2#2FU2/NET19_Xadd_sub#2ffa2#2fU2/MMN2_g